download/pglib-opf-master/api/pglib_opf_case1888_rte__api.m
%%%%%%%%%%%%%%%%%%%%%%%%%%%%%%%%%%%%%%%%%%%%%%%%%%%%%%%%%%%%%%%%%%%%%%%%%%%
%%%%                                                                  %%%%%
%%%%    IEEE PES Power Grid Library - Optimal Power Flow - v19.05     %%%%%
%%%%          (https://github.com/power-grid-lib/pglib-opf)           %%%%%
%%%%             Benchmark Group - Active Power Increase              %%%%%
%%%%                         08 - May - 2019                          %%%%%
%%%%                                                                  %%%%%
%%%%%%%%%%%%%%%%%%%%%%%%%%%%%%%%%%%%%%%%%%%%%%%%%%%%%%%%%%%%%%%%%%%%%%%%%%%
function mpc = pglib_opf_case1888_rte__api
mpc.version = '2';
mpc.baseMVA = 100.0;

%% bus data
%	bus_i	type	Pd	Qd	Gs	Bs	area	Vm	Va	baseKV	zone	Vmax	Vmin
mpc.bus = [
	1	 1	 5.80	 -5.80	 0.0	 0.0	 1	    0.98889	    0.00000	 225.0	 1	    1.08889	    0.88889;
	2	 1	 0.0	 0.0	 0.0	 0.0	 1	    1.07552	    0.00000	 380.0	 1	    1.10263	    1.04841;
	3	 1	 142.50	 -13.40	 0.0	 0.0	 1	    1.04444	    0.00000	 225.0	 1	    1.08444	    1.00444;
	4	 1	 0.0	 0.0	 0.0	 0.0	 1	    1.00334	    0.00000	 150.0	 1	    1.10667	    0.90000;
	5	 1	 32.80	 -5.30	 0.0	 0.0	 1	    1.01111	    0.00000	 225.0	 1	    1.08889	    0.93333;
	6	 1	 64.14	 4.00	 0.0	 0.0	 1	    1.01111	    0.00000	 225.0	 1	    1.08889	    0.93333;
	7	 1	 0.0	 0.0	 0.0	 0.0	 1	    1.07237	    0.00000	 380.0	 1	    1.10526	    1.03947;
	8	 1	 0.0	 0.0	 0.0	 0.0	 1	    1.07237	    0.00000	 380.0	 1	    1.10526	    1.03947;
	9	 1	 0.0	 0.0	 0.0	 0.0	 1	    1.04739	    0.00000	 225.0	 1	    1.09035	    1.00444;
	10	 1	 237.43	 14.90	 0.0	 0.0	 1	    1.01111	    0.00000	 225.0	 1	    1.08889	    0.93333;
	11	 1	 40.85	 5.00	 0.0	 0.0	 1	    1.04666	    0.00000	 225.0	 1	    1.08889	    1.00444;
	12	 1	 62.39	 8.70	 0.0	 0.0	 1	    1.04666	    0.00000	 225.0	 1	    1.08889	    1.00444;
	13	 1	 112.49	 17.20	 0.0	 0.0	 1	    1.04666	    0.00000	 225.0	 1	    1.08889	    1.00444;
	14	 1	 36.00	 -4.20	 0.0	 0.0	 1	    1.01626	    0.00000	 225.0	 1	    1.08252	    0.95000;
	15	 1	 0.0	 0.0	 0.0	 0.0	 1	    1.04666	    0.00000	 225.0	 1	    1.08889	    1.00444;
	16	 1	 0.0	 0.0	 0.0	 0.0	 1	    1.04666	    0.00000	 225.0	 1	    1.08889	    1.00444;
	17	 1	 23.70	 -12.40	 0.0	 0.0	 1	    0.98889	    0.00000	 225.0	 1	    1.08889	    0.88889;
	18	 1	 5.90	 -4.80	 0.0	 0.0	 1	    1.04150	    0.00000	 225.0	 1	    1.09633	    0.98667;
	19	 1	 54.25	 3.70	 0.0	 0.0	 1	    1.04666	    0.00000	 225.0	 1	    1.08889	    1.00444;
	20	 1	 11.01	 0.80	 0.0	 0.0	 1	    1.04666	    0.00000	 225.0	 1	    1.08889	    1.00444;
	21	 1	 9.20	 -29.10	 0.0	 0.0	 1	    1.04666	    0.00000	 225.0	 1	    1.08889	    1.00444;
	22	 1	 67.70	 -3.60	 0.0	 0.0	 1	    1.03778	    0.00000	 225.0	 1	    1.08889	    0.98667;
	23	 1	 25.40	 -2.70	 0.0	 0.0	 1	    0.98889	    0.00000	 225.0	 1	    1.08889	    0.88889;
	25	 1	 102.12	 4.60	 0.0	 0.0	 1	    1.04666	    0.00000	 225.0	 1	    1.08444	    1.00889;
	27	 1	 114.25	 46.70	 0.0	 0.0	 1	    1.01111	    0.00000	 225.0	 1	    1.08889	    0.93333;
	28	 1	 168.18	 6.90	 0.0	 0.0	 1	    1.04666	    0.00000	 225.0	 1	    1.08889	    1.00444;
	29	 1	 0.0	 0.0	 0.0	 0.0	 1	    1.07684	    0.00000	 380.0	 1	    1.10526	    1.04842;
	30	 1	 0.0	 0.0	 0.0	 0.0	 1	    1.07684	    0.00000	 380.0	 1	    1.10526	    1.04842;
	31	 1	 34.63	 0.90	 0.0	 0.0	 1	    1.04666	    0.00000	 225.0	 1	    1.08444	    1.00889;
	33	 1	 109.94	 2.60	 0.0	 0.0	 1	    1.04666	    0.00000	 225.0	 1	    1.08444	    1.00889;
	34	 1	 80.74	 12.70	 0.0	 0.0	 1	    1.04666	    0.00000	 225.0	 1	    1.08889	    1.00444;
	35	 1	 27.13	 2.10	 0.0	 0.0	 1	    1.02333	    0.00000	 150.0	 1	    1.08000	    0.96667;
	36	 1	 60.95	 6.30	 0.0	 0.0	 1	    1.04606	    0.00000	 225.0	 1	    1.09212	    1.00000;
	37	 1	 0.0	 0.0	 0.0	 0.0	 1	    1.07655	    0.00000	 380.0	 1	    1.10526	    1.04785;
	38	 1	 142.01	 9.60	 0.0	 0.0	 1	    1.03778	    0.00000	 225.0	 1	    1.08889	    0.98667;
	2050	 1	 0.0	 0.0	 0.0	 -64.0	 1	    1.15000	    0.00000	 20.0	 1	    1.50000	    0.80000;
	39	 1	 70.90	 -2.30	 0.0	 0.0	 1	    1.02889	    0.00000	 225.0	 1	    1.08889	    0.96889;
	40	 1	 136.20	 -10.70	 0.0	 0.0	 1	    1.05263	    0.00000	 380.0	 1	    1.10526	    1.00000;
	41	 1	 103.08	 17.30	 0.0	 0.0	 1	    1.01111	    0.00000	 225.0	 1	    1.08889	    0.93333;
	42	 1	 21.38	 3.30	 0.0	 0.0	 1	    0.98889	    0.00000	 225.0	 1	    1.08889	    0.88889;
	43	 1	 53.13	 4.70	 0.0	 0.0	 1	    0.98889	    0.00000	 225.0	 1	    1.08889	    0.88889;
	44	 1	 211.60	 -1.30	 0.0	 0.0	 1	    1.04470	    0.00000	 225.0	 1	    1.08496	    1.00444;
	45	 1	 92.10	 -9.10	 0.0	 0.0	 1	    1.04666	    0.00000	 225.0	 1	    1.08889	    1.00444;
	46	 2	 0.0	 0.0	 0.0	 0.0	 1	    1.00422	    0.00000	 150.0	 1	    1.10843	    0.90000;
	47	 1	 0.0	 0.0	 0.0	 0.0	 1	    1.04666	    0.00000	 225.0	 1	    1.08889	    1.00444;
	48	 1	 0.0	 0.0	 0.0	 0.0	 1	    1.04666	    0.00000	 225.0	 1	    1.08889	    1.00444;
	49	 1	 101.64	 84.50	 0.0	 -80.0	 1	    1.04666	    0.00000	 225.0	 1	    1.08889	    1.00444;
	50	 1	 16.59	 6.60	 0.0	 0.0	 1	    1.04666	    0.00000	 225.0	 1	    1.08889	    1.00444;
	51	 1	 0.0	 0.0	 0.0	 0.0	 1	    1.04445	    0.00000	 225.0	 1	    1.08889	    1.00000;
	52	 1	 109.62	 16.50	 0.0	 0.0	 1	    0.98889	    0.00000	 225.0	 1	    1.08889	    0.88889;
	53	 1	 161.48	 15.90	 0.0	 0.0	 1	    1.02889	    0.00000	 225.0	 1	    1.08889	    0.96889;
	54	 1	 0.0	 0.0	 0.0	 0.0	 1	    1.05263	    0.00000	 380.0	 1	    1.10526	    1.00000;
	55	 1	 46.11	 10.60	 0.0	 0.0	 1	    1.04666	    0.00000	 225.0	 1	    1.08444	    1.00889;
	56	 1	 45.00	 2.10	 0.0	 0.0	 1	    1.04666	    0.00000	 225.0	 1	    1.08444	    1.00889;
	1827	 1	 109.60	 -12.90	 0.0	 0.0	 1	    1.04666	    0.00000	 225.0	 1	    1.08889	    1.00444;
	57	 1	 27.30	 -10.90	 0.0	 0.0	 1	    1.01139	    0.00000	 225.0	 1	    1.08945	    0.93333;
	58	 2	 0.0	 0.0	 0.0	 0.0	 1	    1.00431	    0.00000	 150.0	 1	    1.10862	    0.90000;
	59	 1	 58.72	 20.30	 0.0	 0.0	 1	    1.04666	    0.00000	 225.0	 1	    1.08444	    1.00889;
	60	 1	 58.24	 30.80	 0.0	 0.0	 1	    1.04666	    0.00000	 225.0	 1	    1.08444	    1.00889;
	61	 1	 0.0	 0.0	 0.0	 0.0	 1	    1.03333	    0.00000	 225.0	 1	    1.08889	    0.97778;
	62	 1	 8.40	 -0.30	 0.0	 0.0	 1	    0.98889	    0.00000	 225.0	 1	    1.08889	    0.88889;
	63	 1	 13.20	 -6.30	 0.0	 0.0	 1	    1.01111	    0.00000	 225.0	 1	    1.08889	    0.93333;
	64	 1	 21.06	 3.30	 0.0	 0.0	 1	    1.04666	    0.00000	 225.0	 1	    1.08889	    1.00444;
	65	 1	 36.22	 2.50	 0.0	 0.0	 1	    1.04666	    0.00000	 225.0	 1	    1.08889	    1.00444;
	66	 1	 11.40	 -9.70	 0.0	 0.0	 1	    1.04445	    0.00000	 225.0	 1	    1.08889	    1.00000;
	67	 1	 10.20	 -1.30	 0.0	 0.0	 1	    1.03778	    0.00000	 225.0	 1	    1.08889	    0.98667;
	68	 1	 0.0	 0.0	 0.0	 0.0	 1	    0.98889	    0.00000	 225.0	 1	    1.08889	    0.88889;
	69	 1	 0.0	 0.0	 0.0	 0.0	 1	    0.98889	    0.00000	 225.0	 1	    1.08889	    0.88889;
	70	 1	 0.0	 0.0	 0.0	 0.0	 1	    1.05921	    0.00000	 380.0	 1	    1.10526	    1.01316;
	71	 1	 62.55	 2.80	 0.0	 0.0	 1	    1.04666	    0.00000	 225.0	 1	    1.08889	    1.00444;
	72	 1	 30.80	 3.30	 0.0	 -80.0	 1	    1.04666	    0.00000	 225.0	 1	    1.08889	    1.00444;
	73	 1	 0.0	 0.0	 0.0	 0.0	 1	    1.03333	    0.00000	 225.0	 1	    1.08889	    0.97778;
	74	 1	 0.0	 0.0	 0.0	 0.0	 1	    1.03333	    0.00000	 225.0	 1	    1.08889	    0.97778;
	75	 1	 210.46	 3.20	 0.0	 0.0	 1	    1.04666	    0.00000	 225.0	 1	    1.08444	    1.00889;
	76	 1	 0.0	 0.0	 0.0	 0.0	 1	    1.04444	    0.00000	 225.0	 1	    1.08444	    1.00444;
	77	 1	 0.0	 0.0	 0.0	 0.0	 1	    1.07237	    0.00000	 380.0	 1	    1.10263	    1.04211;
	78	 1	 94.60	 -1.90	 0.0	 0.0	 1	    1.04444	    0.00000	 225.0	 1	    1.08444	    1.00444;
	79	 1	 -1.70	 -4.60	 0.0	 0.0	 1	    1.04690	    0.00000	 225.0	 1	    1.08936	    1.00444;
	80	 1	 3.60	 -7.20	 0.0	 0.0	 1	    1.04690	    0.00000	 225.0	 1	    1.08936	    1.00444;
	81	 1	 56.49	 10.90	 0.0	 0.0	 1	    0.98889	    0.00000	 225.0	 1	    1.08889	    0.88889;
	82	 1	 24.09	 0.70	 0.0	 0.0	 1	    1.01562	    0.00000	 225.0	 1	    1.08124	    0.95000;
	83	 1	 91.59	 18.00	 0.0	 0.0	 1	    0.98889	    0.00000	 225.0	 1	    1.08889	    0.88889;
	84	 1	 89.90	 -5.80	 0.0	 0.0	 1	    1.04445	    0.00000	 225.0	 1	    1.08889	    1.00000;
	85	 1	 0.0	 0.0	 0.0	 0.0	 1	    1.04445	    0.00000	 225.0	 1	    1.08889	    1.00000;
	86	 1	 382.63	 17.50	 0.0	 0.0	 1	    1.07798	    0.00000	 380.0	 1	    1.10526	    1.05070;
	87	 1	 56.64	 16.00	 0.0	 0.0	 1	    1.04445	    0.00000	 225.0	 1	    1.08889	    1.00000;
	88	 1	 121.43	 23.00	 0.0	 0.0	 1	    1.04445	    0.00000	 225.0	 1	    1.08889	    1.00000;
	89	 2	 0.0	 0.0	 0.0	 0.0	 1	    1.00000	    0.00000	 150.0	 1	    1.10000	    0.90000;
	90	 1	 33.99	 12.00	 0.0	 0.0	 1	    1.03778	    0.00000	 225.0	 1	    1.08889	    0.98667;
	91	 1	 11.20	 -5.20	 0.0	 0.0	 1	    1.04666	    0.00000	 225.0	 1	    1.08444	    1.00889;
	92	 1	 0.0	 0.0	 0.0	 0.0	 1	    1.07369	    0.00000	 380.0	 1	    1.10526	    1.04211;
	93	 1	 0.0	 0.0	 0.0	 0.0	 1	    1.07369	    0.00000	 380.0	 1	    1.10526	    1.04211;
	96	 1	 18.67	 1.30	 0.0	 0.0	 1	    1.04445	    0.00000	 225.0	 1	    1.08889	    1.00000;
	97	 1	 9.73	 1.40	 0.0	 0.0	 1	    1.04666	    0.00000	 225.0	 1	    1.08889	    1.00444;
	98	 1	 50.42	 2.60	 0.0	 0.0	 1	    1.00000	    0.00000	 150.0	 1	    1.10000	    0.90000;
	99	 1	 68.90	 -11.70	 0.0	 0.0	 1	    1.04445	    0.00000	 225.0	 1	    1.08889	    1.00000;
	100	 2	 0.20	 -0.00	 0.0	 0.0	 1	    1.01647	    0.00000	 225.0	 1	    1.08294	    0.95000;
	101	 1	 0.0	 0.0	 0.0	 0.0	 1	    1.01111	    0.00000	 225.0	 1	    1.08889	    0.93333;
	102	 1	 0.0	 0.0	 0.0	 0.0	 1	    1.07237	    0.00000	 380.0	 1	    1.10526	    1.03947;
	103	 1	 0.0	 0.0	 0.0	 0.0	 1	    1.07237	    0.00000	 380.0	 1	    1.10526	    1.03947;
	104	 1	 0.0	 0.0	 0.0	 0.0	 1	    1.04666	    0.00000	 225.0	 1	    1.08889	    1.00444;
	1828	 1	 48.03	 3.80	 0.0	 0.0	 1	    1.04666	    0.00000	 225.0	 1	    1.08889	    1.00444;
	105	 1	 0.0	 0.0	 0.0	 0.0	 1	    1.03778	    0.00000	 225.0	 1	    1.08889	    0.98667;
	106	 1	 19.31	 4.50	 0.0	 0.0	 1	    1.04666	    0.00000	 225.0	 1	    1.08889	    1.00444;
	107	 1	 106.10	 -0.30	 0.0	 0.0	 1	    1.01111	    0.00000	 225.0	 1	    1.08889	    0.93333;
	108	 1	 0.0	 0.0	 0.0	 0.0	 1	    1.07237	    0.00000	 380.0	 1	    1.10526	    1.03947;
	109	 1	 69.09	 8.40	 0.0	 0.0	 1	    1.04445	    0.00000	 225.0	 1	    1.08889	    1.00000;
	110	 1	 33.20	 -7.50	 0.0	 0.0	 1	    1.04715	    0.00000	 225.0	 1	    1.08986	    1.00444;
	111	 1	 99.50	 -12.40	 0.0	 0.0	 1	    1.04806	    0.00000	 225.0	 1	    1.09612	    1.00000;
	112	 1	 116.40	 -6.70	 0.0	 0.0	 1	    1.03778	    0.00000	 225.0	 1	    1.08889	    0.98667;
	113	 1	 104.83	 14.70	 0.0	 0.0	 1	    1.04740	    0.00000	 225.0	 1	    1.09036	    1.00444;
	114	 1	 171.05	 21.20	 0.0	 0.0	 1	    1.00667	    0.00000	 225.0	 1	    1.08889	    0.92444;
	115	 1	 56.90	 -2.70	 0.0	 0.0	 1	    1.04140	    0.00000	 225.0	 1	    1.09614	    0.98667;
	117	 1	 0.0	 0.0	 0.0	 0.0	 1	    1.07237	    0.00000	 380.0	 1	    1.10526	    1.03947;
	119	 1	 123.60	 -19.80	 0.0	 0.0	 1	    1.04444	    0.00000	 225.0	 1	    1.08444	    1.00444;
	2051	 1	 0.0	 0.0	 0.0	 -64.0	 1	    1.10000	    0.00000	 20.0	 1	    1.40000	    0.80000;
	120	 1	 33.30	 -21.30	 0.0	 0.0	 1	    1.04666	    0.00000	 225.0	 1	    1.08444	    1.00889;
	121	 1	 0.0	 0.0	 0.0	 0.0	 1	    1.06579	    0.00000	 380.0	 1	    1.10263	    1.02895;
	122	 1	 1.70	 -4.40	 0.0	 0.0	 1	    1.01111	    0.00000	 225.0	 1	    1.08889	    0.93333;
	123	 1	 223.87	 17.30	 0.0	 0.0	 1	    1.01111	    0.00000	 225.0	 1	    1.08889	    0.93333;
	124	 1	 33.70	 -1.80	 0.0	 0.0	 1	    1.00000	    0.00000	 63.0	 1	    1.07937	    0.92063;
	125	 2	 0.0	 0.0	 0.0	 0.0	 1	    1.01238	    0.00000	 225.0	 1	    1.07476	    0.95000;
	126	 1	 -1.90	 -5.40	 0.0	 0.0	 1	    1.04884	    0.00000	 225.0	 1	    1.09768	    1.00000;
	127	 1	 0.0	 0.0	 0.0	 0.0	 1	    1.07895	    0.00000	 380.0	 1	    1.10526	    1.05263;
	128	 1	 0.0	 0.0	 0.0	 0.0	 1	    1.07895	    0.00000	 380.0	 1	    1.10526	    1.05263;
	129	 1	 0.0	 0.0	 0.0	 0.0	 1	    1.07895	    0.00000	 380.0	 1	    1.10526	    1.05263;
	130	 1	 0.0	 0.0	 0.0	 0.0	 1	    1.07895	    0.00000	 380.0	 1	    1.10526	    1.05263;
	131	 1	 0.0	 0.0	 0.0	 0.0	 1	    1.04156	    0.00000	 225.0	 1	    1.09645	    0.98667;
	132	 1	 0.0	 0.0	 0.0	 0.0	 1	    1.04156	    0.00000	 225.0	 1	    1.09645	    0.98667;
	133	 1	 0.0	 0.0	 0.0	 0.0	 1	    1.07237	    0.00000	 380.0	 1	    1.10526	    1.03947;
	134	 1	 77.30	 -10.60	 0.0	 0.0	 1	    1.02889	    0.00000	 225.0	 1	    1.08889	    0.96889;
	135	 1	 44.84	 3.80	 0.0	 0.0	 1	    1.04666	    0.00000	 225.0	 1	    1.08444	    1.00889;
	136	 1	 -5.20	 -9.40	 0.0	 0.0	 1	    1.07237	    0.00000	 380.0	 1	    1.10526	    1.03947;
	137	 1	 169.77	 8.00	 0.0	 0.0	 1	    1.01111	    0.00000	 225.0	 1	    1.08889	    0.93333;
	138	 1	 0.0	 0.0	 0.0	 0.0	 1	    1.07237	    0.00000	 380.0	 1	    1.10526	    1.03947;
	140	 1	 113.70	 -8.30	 0.0	 0.0	 1	    1.04666	    0.00000	 225.0	 1	    1.08444	    1.00889;
	141	 1	 71.16	 0.50	 0.0	 0.0	 1	    1.04666	    0.00000	 225.0	 1	    1.08444	    1.00889;
	142	 1	 165.20	 -11.80	 0.0	 0.0	 1	    1.04444	    0.00000	 225.0	 1	    1.08444	    1.00444;
	143	 1	 46.59	 2.10	 0.0	 0.0	 1	    1.01111	    0.00000	 225.0	 1	    1.08889	    0.93333;
	144	 1	 52.34	 4.40	 0.0	 0.0	 1	    1.01111	    0.00000	 225.0	 1	    1.08889	    0.93333;
	145	 1	 19.00	 -18.10	 0.0	 0.0	 1	    1.04698	    0.00000	 225.0	 1	    1.08952	    1.00444;
	146	 1	 0.0	 0.0	 0.0	 0.0	 1	    1.04739	    0.00000	 225.0	 1	    1.09478	    1.00000;
	147	 1	 0.0	 0.0	 0.0	 0.0	 1	    1.04739	    0.00000	 225.0	 1	    1.09478	    1.00000;
	148	 1	 59.20	 5.60	 0.0	 0.0	 1	    1.04445	    0.00000	 225.0	 1	    1.08889	    1.00000;
	149	 1	 20.00	 -3.90	 0.0	 0.0	 1	    1.04666	    0.00000	 225.0	 1	    1.08889	    1.00444;
	150	 1	 60.79	 1.60	 0.0	 0.0	 1	    1.04666	    0.00000	 225.0	 1	    1.08444	    1.00889;
	151	 1	 24.80	 -1.80	 0.0	 0.0	 1	    1.04445	    0.00000	 225.0	 1	    1.08889	    1.00000;
	152	 1	 0.0	 0.0	 0.0	 0.0	 1	    1.04666	    0.00000	 225.0	 1	    1.08444	    1.00889;
	153	 1	 0.0	 0.0	 0.0	 0.0	 1	    1.04666	    0.00000	 225.0	 1	    1.08444	    1.00889;
	154	 1	 0.0	 0.0	 0.0	 0.0	 1	    1.04666	    0.00000	 225.0	 1	    1.08444	    1.00889;
	155	 1	 0.0	 0.0	 0.0	 0.0	 1	    1.06579	    0.00000	 380.0	 1	    1.10263	    1.02895;
	156	 1	 247.80	 26.50	 0.0	 0.0	 1	    0.98889	    0.00000	 225.0	 1	    1.08889	    0.88889;
	157	 1	 0.0	 0.0	 0.0	 0.0	 1	    1.04883	    0.00000	 225.0	 1	    1.09766	    1.00000;
	158	 1	 0.0	 0.0	 0.0	 0.0	 1	    1.07895	    0.00000	 380.0	 1	    1.10526	    1.05263;
	159	 1	 34.31	 4.40	 0.0	 0.0	 1	    1.03778	    0.00000	 225.0	 1	    1.08889	    0.98667;
	160	 1	 41.81	 2.10	 0.0	 0.0	 1	    1.04445	    0.00000	 225.0	 1	    1.08889	    1.00000;
	161	 1	 0.0	 0.0	 0.0	 0.0	 1	    1.04444	    0.00000	 225.0	 1	    1.08444	    1.00444;
	162	 1	 0.0	 0.0	 0.0	 0.0	 1	    1.04444	    0.00000	 225.0	 1	    1.08444	    1.00444;
	163	 1	 0.0	 0.0	 0.0	 0.0	 1	    1.04444	    0.00000	 225.0	 1	    1.08444	    1.00444;
	164	 1	 55.30	 -11.40	 0.0	 0.0	 1	    1.04444	    0.00000	 225.0	 1	    1.08444	    1.00444;
	165	 1	 0.0	 0.0	 0.0	 0.0	 1	    1.01111	    0.00000	 225.0	 1	    1.08889	    0.93333;
	166	 1	 47.87	 12.30	 0.0	 0.0	 1	    1.03778	    0.00000	 225.0	 1	    1.08889	    0.98667;
	2019	 1	 0.0	 0.0	 0.0	 -64.0	 1	    1.15000	    0.00000	 20.0	 1	    1.40000	    0.90000;
	167	 1	 0.0	 0.0	 0.0	 0.0	 1	    1.04470	    0.00000	 225.0	 1	    1.08941	    1.00000;
	168	 1	 0.0	 0.0	 0.0	 0.0	 1	    1.07895	    0.00000	 380.0	 1	    1.10526	    1.05263;
	169	 2	 0.0	 0.0	 0.0	 0.0	 1	    1.00000	    0.00000	 225.0	 1	    1.10000	    0.90000;
	170	 1	 28.40	 2.60	 0.0	 0.0	 1	    1.02333	    0.00000	 150.0	 1	    1.08000	    0.96667;
	171	 1	 25.30	 -3.20	 0.0	 0.0	 1	    1.04666	    0.00000	 225.0	 1	    1.08889	    1.00444;
	172	 1	 -3.70	 -2.00	 0.0	 0.0	 1	    1.04666	    0.00000	 225.0	 1	    1.08889	    1.00444;
	173	 1	 59.52	 0.70	 0.0	 0.0	 1	    0.98889	    0.00000	 225.0	 1	    1.08889	    0.88889;
	181	 1	 172.17	 3.90	 0.0	 0.0	 1	    1.04445	    0.00000	 225.0	 1	    1.08889	    1.00000;
	182	 1	 47.07	 6.80	 0.0	 0.0	 1	    1.03778	    0.00000	 225.0	 1	    1.08889	    0.98667;
	183	 1	 0.0	 0.0	 0.0	 0.0	 1	    1.07237	    0.00000	 380.0	 1	    1.10526	    1.03947;
	184	 1	 0.0	 0.0	 0.0	 0.0	 1	    1.07237	    0.00000	 380.0	 1	    1.10526	    1.03947;
	185	 1	 0.0	 0.0	 0.0	 0.0	 1	    1.07237	    0.00000	 380.0	 1	    1.10526	    1.03947;
	186	 1	 0.0	 0.0	 0.0	 0.0	 1	    1.07237	    0.00000	 380.0	 1	    1.10526	    1.03947;
	187	 1	 28.10	 -10.00	 0.0	 0.0	 1	    1.00667	    0.00000	 225.0	 1	    1.08889	    0.92444;
	188	 1	 -2.00	 -1.10	 0.0	 0.0	 1	    1.03778	    0.00000	 225.0	 1	    1.08889	    0.98667;
	189	 1	 104.99	 19.10	 0.0	 0.0	 1	    1.04444	    0.00000	 225.0	 1	    1.08444	    1.00444;
	190	 1	 -2.30	 1.20	 0.0	 0.0	 1	    1.07237	    0.00000	 380.0	 1	    1.10263	    1.04211;
	191	 1	 -2.30	 1.40	 0.0	 0.0	 1	    1.07237	    0.00000	 380.0	 1	    1.10263	    1.04211;
	192	 1	 0.0	 0.0	 0.0	 0.0	 1	    1.04666	    0.00000	 225.0	 1	    1.08889	    1.00444;
	193	 1	 0.0	 0.0	 0.0	 0.0	 1	    1.03333	    0.00000	 225.0	 1	    1.08889	    0.97778;
	194	 1	 0.0	 0.0	 0.0	 0.0	 1	    1.03333	    0.00000	 225.0	 1	    1.08889	    0.97778;
	195	 1	 83.60	 -8.60	 0.0	 0.0	 1	    1.02889	    0.00000	 225.0	 1	    1.08889	    0.96889;
	196	 1	 0.0	 0.0	 0.0	 0.0	 1	    1.01111	    0.00000	 225.0	 1	    1.08889	    0.93333;
	197	 1	 0.0	 0.0	 0.0	 0.0	 1	    1.01111	    0.00000	 225.0	 1	    1.08889	    0.93333;
	198	 1	 91.75	 10.20	 0.0	 0.0	 1	    1.04444	    0.00000	 225.0	 1	    1.08444	    1.00444;
	199	 1	 177.40	 -31.40	 0.0	 0.0	 1	    1.04444	    0.00000	 225.0	 1	    1.08444	    1.00444;
	200	 1	 0.0	 0.0	 0.0	 0.0	 1	    1.03333	    0.00000	 225.0	 1	    1.08889	    0.97778;
	201	 1	 0.0	 0.0	 0.0	 0.0	 1	    1.04444	    0.00000	 225.0	 1	    1.08444	    1.00444;
	202	 1	 124.20	 -3.20	 0.0	 0.0	 1	    1.02000	    0.00000	 225.0	 1	    1.08889	    0.95111;
	203	 1	 56.33	 1.90	 0.0	 0.0	 1	    1.04666	    0.00000	 225.0	 1	    1.08889	    1.00444;
	204	 1	 51.60	 -4.00	 0.0	 0.0	 1	    1.03778	    0.00000	 225.0	 1	    1.08889	    0.98667;
	2086	 1	 0.0	 0.0	 0.0	 -64.0	 1	    1.10000	    0.00000	 20.0	 1	    1.40000	    0.80000;
	205	 1	 16.90	 -1.80	 0.0	 0.0	 1	    1.04666	    0.00000	 225.0	 1	    1.08444	    1.00889;
	206	 1	 0.0	 0.0	 0.0	 0.0	 1	    1.06579	    0.00000	 380.0	 1	    1.10263	    1.02895;
	207	 1	 38.60	 -0.70	 0.0	 0.0	 1	    1.04666	    0.00000	 225.0	 1	    1.08889	    1.00444;
	1829	 2	 0.0	 0.0	 0.0	 0.0	 1	    1.01429	    0.00000	 225.0	 1	    1.07859	    0.95000;
	208	 1	 0.0	 0.0	 0.0	 0.0	 1	    0.98889	    0.00000	 225.0	 1	    1.08889	    0.88889;
...
];

%% generator data
%	bus	Pg	Qg	Qmax	Qmin	Vg	mBase	status	Pmax	Pmin
mpc.gen = [
	1268	 172.0	 0.0	 161.0	 -161.0	 1.01773	 100.0	 1	 322	 22.0; % NG
	1268	 147.5	 0.0	 137.0	 -137.0	 1.01773	 100.0	 1	 273	 22.0; % NG
	1356	 173.6	 0.0	 173.0	 -173.0	 1.01408	 100.0	 1	 345	 2.2; % PEL
	89	 57.75	 0.0	 236.4	 -236.4	 1.0	 100.0	 1	 113	 2.5; % NG
	125	 86.17	 0.0	 85.0	 -85.0	 1.01238	 100.0	 1	 170	 2.34; % PEL
	908	 30.5	 0.0	 273.6	 -273.6	 1.00439	 100.0	 1	 59	 2.0; % PEL
	817	 0.0	 0.0	 13.0	 -13.0	 1.00423	 100.0	 0	 25	 1.2; % PEL
	817	 60.2	 0.0	 2264.4	 -2264.4	 1.00423	 100.0	 1	 119	 1.4; % NG
	817	 0.0	 0.0	 285.0	 -285.0	 1.00423	 100.0	 0	 570	 1.2; % COW
	1335	 50.5	 0.0	 152.4	 -152.4	 1.0	 100.0	 1	 98	 3.0; % NG
	396	 26.55	 0.0	 26.0	 -26.0	 1.0	 100.0	 1	 52	 1.1; % NG
	396	 37.55	 0.0	 37.0	 -37.0	 1.0	 100.0	 1	 74	 1.1; % NG
	975	 222.75	 0.0	 221.0	 -221.0	 1.0	 100.0	 1	 442	 3.5; % NG
	858	 187.27	 0.0	 185.0	 -185.0	 1.01931	 100.0	 1	 369	 5.54; % PEL
	921	 48.1	 0.0	 46.0	 -46.0	 1.0	 100.0	 1	 92	 4.2; % PEL
	921	 42.6	 0.0	 41.0	 -41.0	 1.0	 100.0	 1	 81	 4.2; % NG
	1255	 258.85	 0.0	 255.0	 -255.0	 1.01587	 100.0	 1	 509	 8.7; % NG
	169	 152.915	 0.0	 153.0	 -153.0	 1.0	 100.0	 1	 305	 0.83; % NG
	448	 730.0	 0.0	 730.0	 -730.0	 1.01761	 100.0	 1	 1460	 0.0; % NG
	241	 22.15	 0.0	 22.0	 -22.0	 1.0	 100.0	 1	 43	 1.3; % NG
	241	 27.65	 0.0	 27.0	 -27.0	 1.0	 100.0	 1	 54	 1.3; % NG
	241	 36.65	 0.0	 36.0	 -36.0	 1.0	 100.0	 1	 72	 1.3; % NG
	241	 18.15	 0.0	 18.0	 -18.0	 1.0	 100.0	 1	 35	 1.3; % NG
	270	 99.5	 0.0	 97.0	 -97.0	 1.00923	 100.0	 1	 194	 5.0; % NG
	885	 213.4	 0.0	 213.0	 -213.0	 1.01893	 100.0	 1	 426	 0.8; % PEL
	885	 213.4	 0.0	 213.0	 -213.0	 1.01893	 100.0	 1	 426	 0.8; % PEL
	876	 155.7	 0.0	 178.8	 -178.8	 1.01811	 100.0	 1	 306	 5.4; % NG
	46	 70.0	 0.0	 926.4	 -926.4	 1.00422	 100.0	 1	 137	 3.0; % NG
	803	 209.19	 0.0	 209.0	 -209.0	 1.01288	 100.0	 1	 417	 1.38; % NG
	356	 355.07	 0.0	 353.0	 -353.0	 1.01705	 100.0	 1	 706	 4.14; % NG
	100	 275.0	 0.0	 269.0	 -269.0	 1.01647	 100.0	 1	 537	 13.0; % NG
	707	 105.05	 0.0	 112.8	 -112.8	 1.0	 100.0	 1	 208	 2.1; % PEL
	973	 -0.0	 0.0	 0.0	 0.0	 1.01855	 100.0	 0	 0	 -8.0; % SYNC
	973	 114.15	 0.0	 112.0	 -112.0	 1.01855	 100.0	 1	 223	 5.3; % NG
	1118	 317.25	 0.0	 315.0	 -315.0	 1.01384	 100.0	 1	 629	 5.5; % NG
	897	 91.85	 0.0	 91.0	 -91.0	 1.0	 100.0	 1	 181	 2.7; % PEL
	897	 55.35	 0.0	 54.0	 -54.0	 1.0	 100.0	 1	 108	 2.7; % NG
	58	 0.0	 0.0	 40.0	 -40.0	 1.00431	 100.0	 0	 80	 0.6; % PEL
	82	 186.765	 0.0	 186.0	 -186.0	 1.01562	 100.0	 1	 371	 2.53; % PEL
	474	 81.1	 0.0	 79.0	 -79.0	 1.01533	 100.0	 1	 157	 5.2; % NG
	1221	 118.9	 0.0	 116.0	 -116.0	 1.0	 100.0	 1	 232	 5.8; % NG
	355	 76.1	 0.0	 98.4	 -98.4	 1.0	 100.0	 1	 146	 6.2; % NG
	471	 190.4	 0.0	 187.0	 -187.0	 1.0171	 100.0	 1	 373	 7.8; % NG
	1321	 35.05	 0.0	 1626.0	 -1626.0	 1.00423	 100.0	 1	 69	 1.1; % PEL
	1321	 37.5	 0.0	 1626.0	 -1626.0	 1.00423	 100.0	 1	 75	 0.0; % PEL
	1829	 89.675	 0.0	 89.0	 -89.0	 1.01429	 100.0	 1	 177	 2.35; % PEL
	1005	 72.45	 0.0	 71.0	 -71.0	 1.00521	 100.0	 1	 141	 3.9; % NG
	14	 98.88	 0.0	 98.0	 -98.0	 1.01626	 100.0	 1	 195	 2.76; % NG
	14	 93.7	 0.0	 93.0	 -93.0	 1.01626	 100.0	 1	 185	 2.4; % PEL
	1628	 158.0	 -31.125	 155.3	 -217.55	 1.0	 100.0	 1	 216	 100.0; % NG
	1629	 362.5	 0.0	 328.0	 -328.0	 1.0	 100.0	 1	 655	 70.0; % COW
	1844	 60.35	 0.0	 59.0	 -59.0	 1.00776	 100.0	 1	 118	 2.7; % NG
	1630	 64.8	 0.0	 61.0	 -61.0	 0.98876	 100.0	 1	 121	 8.6; % NG
	1631	 50.95	 0.0	 49.0	 -49.0	 0.98996	 100.0	 1	 97	 4.9; % NG
	1846	 88.1	 0.0	 87.0	 -87.0	 1.0	 100.0	 1	 173	 3.2; % NG
	1632	 37.6	 0.0	 36.0	 -36.0	 1.0	 100.0	 1	 72	 3.2; % COW
	1847	 60.6	 0.0	 59.0	 -59.0	 1.0	 100.0	 1	 118	 3.2; % PEL
	1848	 90.6	 0.0	 89.0	 -89.0	 1.0	 100.0	 1	 178	 3.2; % NG
	1852	 84.6	 0.0	 80.0	 -80.0	 1.0	 100.0	 1	 160	 9.2; % NG
	1854	 159.6	 0.0	 155.0	 -155.0	 1.0	 100.0	 1	 310	 9.2; % NG
	1633	 659.2675	 0.0	 596.0	 -596.0	 1.00135	 100.0	 1	 1191	 127.535; % COW
	1634	 875.0125	 0.0	 803.0	 -803.0	 1.00053	 100.0	 1	 1606	 144.025; % COW
	1635	 904.52	 0.0	 841.0	 -841.0	 1.00053	 100.0	 1	 1681	 128.04; % COW
	1636	 637.2675	 0.0	 574.0	 -574.0	 1.0	 100.0	 1	 1148	 126.535; % NG
	1637	 178.0	 7.015	 153.03	 -139.0	 1.0	 100.0	 1	 278	 78.0; % NG
	1638	 197.5	 0.0	 159.0	 -159.0	 1.0	 100.0	 1	 318	 77.0; % NG
	1639	 254.5	 0.0	 216.0	 -216.0	 1.0	 100.0	 1	 432	 77.0; % NG
	1640	 310.5	 0.0	 280.0	 -280.0	 1.0	 100.0	 1	 560	 61.0; % NG
	1641	 130.75	 0.0	 109.0	 -109.0	 1.00373	 100.0	 1	 217	 44.5; % NG
	1642	 48.4	 0.0	 46.0	 -46.0	 1.0	 100.0	 1	 91	 5.8; % NG
	1643	 75.4	 0.0	 73.0	 -73.0	 1.0	 100.0	 1	 145	 5.8; % NG
	1855	 70.9	 0.0	 68.0	 -68.0	 1.0	 100.0	 1	 136	 5.8; % PEL
	1644	 109.4	 0.0	 107.0	 -107.0	 1.0	 100.0	 1	 213	 5.8; % PEL
	1645	 92.9	 0.0	 90.0	 -90.0	 1.0	 100.0	 1	 180	 5.8; % PEL
	1646	 583.75	 0.0	 551.0	 -551.0	 1.00036	 100.0	 1	 1101	 66.5; % COW
	1647	 48.2475	 2.335	 50.67	 -46.0	 1.0	 100.0	 1	 92	 4.495; % NG
	1861	 21.1	 0.0	 20.0	 -20.0	 1.0	 100.0	 1	 39	 3.2; % PEL
	1648	 663.0725	 0.0	 597.0	 -597.0	 0.99083	 100.0	 1	 1193	 133.145; % COW
	1649	 726.205	 0.0	 658.0	 -658.0	 0.98954	 100.0	 1	 1316	 136.41; % COW
	1650	 541.07	 0.04	 537.68	 -537.6	 0.98754	 100.0	 1	 945	 137.14; % COW
	1651	 620.7	 0.0	 553.0	 -553.0	 0.9946	 100.0	 1	 1105	 136.4; % NG
	1652	 256.0	 252.02	 681.04	 -177.0	 0.99759	 100.0	 1	 353	 159.0; % COW
	1862	 536.5	 112.015	 681.03	 -457.0	 0.99881	 100.0	 1	 914	 159.0; % NUC
	1653	 125.25	 0.0	 124.0	 -124.0	 1.0	 100.0	 1	 247	 3.5; % NG
	1654	 134.25	 0.0	 133.0	 -133.0	 1.0	 100.0	 1	 265	 3.5; % COW
	1655	 59.75	 0.0	 58.0	 -58.0	 1.0	 100.0	 1	 116	 3.5; % PEL
	1656	 48.25	 0.0	 47.0	 -47.0	 1.0	 100.0	 1	 93	 3.5; % NG
	1657	 39.75	 0.0	 38.0	 -38.0	 1.0	 100.0	 1	 76	 3.5; % PEL
	1658	 41.25	 0.0	 40.0	 -40.0	 1.0	 100.0	 1	 79	 3.5; % NG
	1863	 29.8475	 0.0	 28.0	 -28.0	 1.0	 100.0	 1	 56	 3.695; % NG
	1659	 30.8475	 0.0	 29.0	 -29.0	 1.0	 100.0	 1	 58	 3.695; % PEL
	1660	 65.8475	 0.0	 64.0	 -64.0	 1.0	 100.0	 1	 128	 3.695; % PEL
	1661	 85.3475	 0.0	 84.0	 -84.0	 1.0	 100.0	 1	 167	 3.695; % NG
	1662	 20.3475	 0.0	 19.0	 -19.0	 1.0	 100.0	 1	 37	 3.695; % PEL
	1663	 22.8475	 0.0	 21.0	 -21.0	 1.0	 100.0	 1	 42	 3.695; % PEL
	1865	 33.5	 0.0	 33.0	 -33.0	 1.0	 100.0	 1	 65	 2.0; % NG
	1866	 40.05	 0.0	 39.0	 -39.0	 1.0	 100.0	 1	 77	 3.1; % NG
	1664	 43.05	 0.0	 42.0	 -42.0	 1.0	 100.0	 1	 83	 3.1; % NG
	1665	 74.55	 0.0	 73.0	 -73.0	 1.0	 100.0	 1	 146	 3.1; % NG
	1867	 41.05	 0.0	 40.0	 -40.0	 1.0	 100.0	 1	 79	 3.1; % PEL
	1666	 44.55	 0.0	 43.0	 -43.0	 1.0	 100.0	 1	 86	 3.1; % COW
	1868	 54.05	 0.0	 53.0	 -53.0	 1.0	 100.0	 1	 105	 3.1; % NG
	1667	 1164.25	 0.0	 1080.0	 -1080.0	 0.99649	 100.0	 1	 2160	 168.5; % COW
	1668	 557.25	 95.46	 656.92	 -466.0	 0.99502	 100.0	 1	 931	 183.5; % NUC
	1669	 542.75	 98.515	 648.03	 -451.0	 0.99328	 100.0	 1	 902	 183.5; % NUC
	1670	 321.35	 0.0	 321.0	 -321.0	 1.00942	 100.0	 1	 642	 0.7; % PEL
	1873	 308.0	 0.0	 296.0	 -296.0	 1.0	 100.0	 1	 592	 24.0; % NG
	1874	 291.0	 0.0	 279.0	 -279.0	 1.0	 100.0	 1	 558	 24.0; % NG
	1671	 723.18	 0.0	 665.0	 -665.0	 1.0	 100.0	 1	 1330	 116.36; % COW
	1673	 610.935	 0.0	 550.0	 -550.0	 1.0	 100.0	 1	 1100	 121.87; % COW
	1674	 694.685	 0.0	 634.0	 -634.0	 0.99957	 100.0	 1	 1268	 121.37; % COW
	1675	 551.25	 115.64	 682.28	 -451.0	 0.99963	 100.0	 1	 901	 201.5; % COW
	1676	 379.25	 186.385	 687.17	 -314.4	 1.00522	 100.0	 1	 557	 201.5; % COW
	1875	 1006.0	 0.0	 907.0	 -907.0	 1.0	 100.0	 1	 1813	 199.0; % COW
	1677	 979.0	 0.0	 880.0	 -880.0	 1.0	 100.0	 1	 1759	 199.0; % COW
	2022	 59.25	 0.0	 56.0	 -56.0	 1.0	 100.0	 1	 111	 7.5; % NG
	1876	 105.25	 0.0	 102.0	 -102.0	 1.0	 100.0	 1	 203	 7.5; % COW
	1877	 102.25	 0.0	 99.0	 -99.0	 1.0	 100.0	 1	 197	 7.5; % COW
	1878	 162.25	 0.0	 159.0	 -159.0	 1.0	 100.0	 1	 317	 7.5; % NG
	1678	 181.625	 0.0	 180.0	 -180.0	 1.0	 100.0	 1	 359	 4.25; % NG
	1679	 249.625	 0.0	 248.0	 -248.0	 1.0	 100.0	 1	 495	 4.25; % NG
	1680	 141.55	 0.0	 141.0	 -141.0	 1.0	 100.0	 1	 281	 2.1; % NG
	1681	 553.5	 0.0	 509.0	 -509.0	 1.0	 100.0	 1	 1017	 90.0; % COW
	1682	 502.5	 0.0	 425.0	 -425.0	 0.98022	 100.0	 1	 850	 155.0; % COW
	1683	 505.0	 0.0	 428.0	 -428.0	 0.98002	 100.0	 1	 855	 155.0; % COW
	1684	 419.75	 0.0	 369.0	 -369.0	 1.0	 100.0	 1	 737	 102.5; % COW
	1881	 35.5	 0.0	 33.0	 -33.0	 1.0	 100.0	 1	 66	 5.0; % NG
	1882	 30.0	 0.0	 28.0	 -28.0	 1.0	 100.0	 1	 55	 5.0; % NG
	1685	 45.5	 0.0	 43.0	 -43.0	 1.0	 100.0	 1	 86	 5.0; % NG
	1883	 31.0	 0.0	 29.0	 -29.0	 1.0	 100.0	 1	 57	 5.0; % NG
	1884	 123.5	 0.0	 121.0	 -121.0	 1.0	 100.0	 1	 242	 5.0; % NG
	1885	 46.5	 0.0	 44.0	 -44.0	 1.0	 100.0	 1	 88	 5.0; % COW
	1686	 645.5	 0.0	 576.0	 -576.0	 1.0	 100.0	 1	 1151	 140.0; % NG
	1687	 858.5	 0.0	 789.0	 -789.0	 1.0	 100.0	 1	 1577	 140.0; % COW
	1688	 696.5	 0.0	 627.0	 -627.0	 1.0	 100.0	 1	 1253	 140.0; % NUC
	1689	 0.0	 0.0	 559.16	 -96.85	 1.0	 100.0	 0	 64	 280.0; % COW
	1888	 68.35	 0.0	 66.0	 -66.0	 1.0	 100.0	 1	 131	 5.7; % NG
	1690	 229.25	 24.885	 219.77	 -170.0	 0.98588	 100.0	 1	 339	 119.5; % COW
	1691	 94.75	 0.0	 90.0	 -90.0	 1.0	 100.0	 1	 179	 10.5; % NG
	1692	 299.2	 10.55	 258.1	 -237.0	 1.01132	 100.0	 1	 474	 124.4; % NG
	1693	 130.9525	 0.0	 111.0	 -111.0	 1.0	 100.0	 1	 221	 40.905; % NG
	1694	 137.57	 0.0	 117.0	 -117.0	 1.0	 100.0	 1	 234	 41.14; % NG
	1695	 187.4775	 0.0	 174.0	 -174.0	 1.0	 100.0	 1	 348	 26.955; % NG
	1696	 200.4925	 0.0	 190.0	 -190.0	 1.0	 100.0	 1	 379	 21.985; % NG
	1697	 201.4225	 190.57	 525.14	 -144.0	 1.0	 100.0	 1	 288	 114.845; % NG
	1698	 311.9225	 135.07	 525.14	 -255.0	 1.0	 100.0	 1	 509	 114.845; % COW
	1699	 243.1725	 171.385	 526.77	 -184.0	 1.0	 100.0	 1	 368	 118.345; % COW
	1700	 267.9225	 162.645	 530.29	 -205.0	 1.0	 100.0	 1	 410	 125.845; % COW
	1701	 76.1	 0.0	 75.0	 -75.0	 1.0	 100.0	 1	 149	 3.2; % NG
	1702	 83.495	 0.0	 82.0	 -82.0	 1.0	 100.0	 1	 163	 3.99; % NG
	1703	 84.495	 0.0	 83.0	 -83.0	 1.0	 100.0	 1	 165	 3.99; % COW
	1889	 53.495	 0.0	 52.0	 -52.0	 1.0	 100.0	 1	 103	 3.99; % NG
	1704	 862.0	 0.0	 777.0	 -777.0	 1.0	 100.0	 1	 1554	 170.0; % COW
	1705	 809.0	 0.0	 724.0	 -724.0	 1.0	 100.0	 1	 1448	 170.0; % COW
	1890	 52.7	 0.0	 52.0	 -52.0	 1.0	 100.0	 1	 103	 2.4; % PEL
	1891	 39.2	 0.0	 38.0	 -38.0	 1.0	 100.0	 1	 76	 2.4; % PEL
	1892	 59.2	 0.0	 58.0	 -58.0	 1.0	 100.0	 1	 116	 2.4; % NG
	1706	 20.7	 0.0	 20.0	 -20.0	 1.0	 100.0	 1	 39	 2.4; % NG
	1707	 37.7	 0.0	 37.0	 -37.0	 1.0	 100.0	 1	 73	 2.4; % NG
	2026	 36.2	 0.0	 35.0	 -35.0	 1.0	 100.0	 1	 70	 2.4; % PEL
	1898	 16.7	 0.0	 16.0	 -16.0	 1.0	 100.0	 1	 31	 2.4; % PEL
	1708	 25.2	 0.0	 24.0	 -24.0	 1.0	 100.0	 1	 48	 2.4; % NG
	1709	 42.2	 0.0	 41.0	 -41.0	 1.0	 100.0	 1	 82	 2.4; % NG
	1710	 78.45	 0.0	 77.0	 -77.0	 1.0	 100.0	 1	 154	 2.9; % NG
	1711	 30.95	 0.0	 30.0	 -30.0	 1.0	 100.0	 1	 59	 2.9; % PEL
	1712	 984.5	 0.0	 913.0	 -913.0	 1.0	 100.0	 1	 1825	 144.0; % NUC
	1713	 874.0	 0.0	 802.0	 -802.0	 1.00198	 100.0	 1	 1604	 144.0; % NG
	1714	 213.815	 31.95	 255.9	 -192.0	 1.01466	 100.0	 1	 383	 44.63; % NG
	1715	 370.75	 106.44	 524.88	 -312.0	 1.0	 100.0	 1	 623	 118.5; % COW
	1716	 609.75	 0.0	 543.0	 -543.0	 1.0	 100.0	 1	 1086	 133.5; % COW
	1717	 346.75	 120.75	 529.5	 -288.0	 0.9936	 100.0	 1	 575	 118.5; % NUC
	1718	 360.75	 113.295	 528.59	 -302.0	 0.99876	 100.0	 1	 603	 118.5; % COW
	1719	 560.75	 13.765	 529.53	 -502.0	 1.0	 100.0	 1	 1003	 118.5; % NUC
	1720	 262.75	 150.065	 504.13	 -204.0	 1.0	 100.0	 1	 407	 118.5; % COW
	1721	 351.75	 0.0	 321.0	 -321.0	 1.0	 100.0	 1	 641	 62.5; % NG
	1906	 260.47	 0.0	 252.0	 -252.0	 1.0	 100.0	 1	 504	 16.94; % COW
	1907	 340.47	 0.0	 332.0	 -332.0	 1.0	 100.0	 1	 664	 16.94; % NG
	1908	 163.47	 0.0	 155.0	 -155.0	 1.0	 100.0	 1	 310	 16.94; % COW
	1909	 274.47	 0.0	 266.0	 -266.0	 1.0	 100.0	 1	 532	 16.94; % NG
	1910	 264.47	 0.0	 256.0	 -256.0	 1.0	 100.0	 1	 512	 16.94; % NG
	1911	 213.97	 0.0	 206.0	 -206.0	 1.0	 100.0	 1	 411	 16.94; % COW
	1912	 366.97	 0.0	 359.0	 -359.0	 1.0	 100.0	 1	 717	 16.94; % COW
	1913	 173.47	 0.0	 165.0	 -165.0	 1.0	 100.0	 1	 330	 16.94; % PEL
	1722	 198.7	 63.95	 272.9	 -145.0	 1.0	 100.0	 1	 289	 108.4; % NG
	1723	 192.0	 0.0	 160.0	 -160.0	 1.0055	 100.0	 1	 319	 65.0; % NG
	1724	 0.0	 0.0	 452.0	 -452.0	 1.0	 100.0	 0	 904	 125.0; % COW
	1725	 252.0	 4.655	 199.31	 -190.0	 1.0	 100.0	 1	 379	 125.0; % NG
	1919	 34.5	 0.0	 34.0	 -34.0	 1.0	 100.0	 1	 67	 2.0; % PEL
	1920	 57.2	 0.0	 56.0	 -56.0	 1.0	 100.0	 1	 112	 2.4; % PEL
	1921	 36.7	 0.0	 36.0	 -36.0	 1.0	 100.0	 1	 71	 2.4; % PEL
	1922	 72.7	 0.0	 72.0	 -72.0	 1.0	 100.0	 1	 143	 2.4; % PEL
	1923	 29.7	 0.0	 29.0	 -29.0	 1.00306	 100.0	 1	 57	 2.4; % COW
	1924	 28.7	 0.0	 28.0	 -28.0	 1.0007	 100.0	 1	 55	 2.4; % PEL
	1726	 49.25	 0.0	 48.0	 -48.0	 1.0	 100.0	 1	 95	 3.5; % COW
	1727	 22.75	 0.0	 21.0	 -21.0	 1.0	 100.0	 1	 42	 3.5; % PEL
	1728	 43.25	 0.0	 42.0	 -42.0	 1.0	 100.0	 1	 83	 3.5; % PEL
	1928	 75.25	 0.0	 74.0	 -74.0	 1.0	 100.0	 1	 147	 3.5; % NG
	1729	 299.0	 0.0	 269.0	 -269.0	 0.99639	 100.0	 1	 538	 60.0; % NG
	1931	 83.65	 0.0	 80.0	 -80.0	 1.0	 100.0	 1	 160	 7.3; % COW
	1932	 100.95	 0.0	 98.0	 -98.0	 0.99648	 100.0	 1	 195	 6.9; % NG
...
];

%% generator cost data
%	2	startup	shutdown	n	c(n-1)	...	c0
mpc.gencost = [
	2	 0.0	 0.0	 3	   0.000000	  36.879614	   0.000000; % NG
	2	 0.0	 0.0	 3	   0.000000	 102.818703	   0.000000; % NG
	2	 0.0	 0.0	 3	   0.000000	 123.867753	   0.000000; % PEL
	2	 0.0	 0.0	 3	   0.000000	 106.230210	   0.000000; % NG
	2	 0.0	 0.0	 3	   0.000000	 111.337642	   0.000000; % PEL
	2	 0.0	 0.0	 3	   0.000000	  37.203873	   0.000000; % PEL
	2	 0.0	 0.0	 3	   0.000000	  49.778795	   0.000000; % PEL
	2	 0.0	 0.0	 3	   0.000000	  27.586445	   0.000000; % NG
	2	 0.0	 0.0	 3	   0.000000	  21.586989	   0.000000; % COW
	2	 0.0	 0.0	 3	   0.000000	 102.922605	   0.000000; % NG
	2	 0.0	 0.0	 3	   0.000000	  23.347606	   0.000000; % NG
	2	 0.0	 0.0	 3	   0.000000	 110.721100	   0.000000; % NG
	2	 0.0	 0.0	 3	   0.000000	  26.419861	   0.000000; % NG
	2	 0.0	 0.0	 3	   0.000000	  30.601438	   0.000000; % PEL
	2	 0.0	 0.0	 3	   0.000000	  42.569564	   0.000000; % PEL
	2	 0.0	 0.0	 3	   0.000000	  22.993553	   0.000000; % NG
	2	 0.0	 0.0	 3	   0.000000	  45.335599	   0.000000; % NG
	2	 0.0	 0.0	 3	   0.000000	  34.937230	   0.000000; % NG
	2	 0.0	 0.0	 3	   0.000000	  30.757753	   0.000000; % NG
	2	 0.0	 0.0	 3	   0.000000	  30.622515	   0.000000; % NG
	2	 0.0	 0.0	 3	   0.000000	  46.406787	   0.000000; % NG
	2	 0.0	 0.0	 3	   0.000000	  31.911806	   0.000000; % NG
	2	 0.0	 0.0	 3	   0.000000	  31.483516	   0.000000; % NG
	2	 0.0	 0.0	 3	   0.000000	  31.323377	   0.000000; % NG
	2	 0.0	 0.0	 3	   0.000000	  30.744730	   0.000000; % PEL
	2	 0.0	 0.0	 3	   0.000000	  13.975616	   0.000000; % PEL
	2	 0.0	 0.0	 3	   0.000000	  48.070538	   0.000000; % NG
	2	 0.0	 0.0	 3	   0.000000	 111.022896	   0.000000; % NG
	2	 0.0	 0.0	 3	   0.000000	  44.772489	   0.000000; % NG
	2	 0.0	 0.0	 3	   0.000000	  43.154786	   0.000000; % NG
	2	 0.0	 0.0	 3	   0.000000	  39.003663	   0.000000; % NG
	2	 0.0	 0.0	 3	   0.000000	  29.811093	   0.000000; % PEL
	2	 0.0	 0.0	 3	   0.000000	   0.000000	   0.000000; % SYNC
	2	 0.0	 0.0	 3	   0.000000	  34.301794	   0.000000; % NG
	2	 0.0	 0.0	 3	   0.000000	  44.860956	   0.000000; % NG
	2	 0.0	 0.0	 3	   0.000000	 120.918113	   0.000000; % PEL
	2	 0.0	 0.0	 3	   0.000000	  24.962467	   0.000000; % NG
	2	 0.0	 0.0	 3	   0.000000	  32.859582	   0.000000; % PEL
	2	 0.0	 0.0	 3	   0.000000	  41.589808	   0.000000; % PEL
	2	 0.0	 0.0	 3	   0.000000	  35.660132	   0.000000; % NG
	2	 0.0	 0.0	 3	   0.000000	  89.794302	   0.000000; % NG
	2	 0.0	 0.0	 3	   0.000000	  32.095030	   0.000000; % NG
	2	 0.0	 0.0	 3	   0.000000	  34.473234	   0.000000; % NG
	2	 0.0	 0.0	 3	   0.000000	  43.179533	   0.000000; % PEL
	2	 0.0	 0.0	 3	   0.000000	 106.557899	   0.000000; % PEL
	2	 0.0	 0.0	 3	   0.000000	  14.407526	   0.000000; % PEL
	2	 0.0	 0.0	 3	   0.000000	 119.630609	   0.000000; % NG
	2	 0.0	 0.0	 3	   0.000000	 116.533424	   0.000000; % NG
	2	 0.0	 0.0	 3	   0.000000	 126.010118	   0.000000; % PEL
	2	 0.0	 0.0	 3	   0.000000	   6.745408	   0.000000; % NG
	2	 0.0	 0.0	 3	   0.000000	 107.069234	   0.000000; % COW
	2	 0.0	 0.0	 3	   0.000000	  29.420074	   0.000000; % NG
	2	 0.0	 0.0	 3	   0.000000	  31.885121	   0.000000; % NG
	2	 0.0	 0.0	 3	   0.000000	  35.833663	   0.000000; % NG
	2	 0.0	 0.0	 3	   0.000000	 119.431558	   0.000000; % NG
	2	 0.0	 0.0	 3	   0.000000	 121.989784	   0.000000; % COW
	2	 0.0	 0.0	 3	   0.000000	 104.195581	   0.000000; % PEL
	2	 0.0	 0.0	 3	   0.000000	  65.052207	   0.000000; % NG
	2	 0.0	 0.0	 3	   0.000000	  44.924115	   0.000000; % NG
	2	 0.0	 0.0	 3	   0.000000	  42.564627	   0.000000; % NG
	2	 0.0	 0.0	 3	   0.000000	   6.450082	   0.000000; % COW
	2	 0.0	 0.0	 3	   0.000000	  24.823632	   0.000000; % COW
	2	 0.0	 0.0	 3	   0.000000	  30.414781	   0.000000; % COW
	2	 0.0	 0.0	 3	   0.000000	  31.215842	   0.000000; % NG
	2	 0.0	 0.0	 3	   0.000000	  33.015136	   0.000000; % NG
	2	 0.0	 0.0	 3	   0.000000	  31.598869	   0.000000; % NG
	2	 0.0	 0.0	 3	   0.000000	  28.829022	   0.000000; % NG
	2	 0.0	 0.0	 3	   0.000000	  20.078606	   0.000000; % NG
	2	 0.0	 0.0	 3	   0.000000	  50.521495	   0.000000; % NG
	2	 0.0	 0.0	 3	   0.000000	  95.047113	   0.000000; % NG
	2	 0.0	 0.0	 3	   0.000000	 114.295845	   0.000000; % NG
	2	 0.0	 0.0	 3	   0.000000	 103.134064	   0.000000; % PEL
	2	 0.0	 0.0	 3	   0.000000	  30.579540	   0.000000; % PEL
	2	 0.0	 0.0	 3	   0.000000	  20.312818	   0.000000; % PEL
	2	 0.0	 0.0	 3	   0.000000	  44.670303	   0.000000; % COW
	2	 0.0	 0.0	 3	   0.000000	  43.533901	   0.000000; % NG
	2	 0.0	 0.0	 3	   0.000000	 106.652079	   0.000000; % PEL
	2	 0.0	 0.0	 3	   0.000000	  25.143778	   0.000000; % COW
	2	 0.0	 0.0	 3	   0.000000	  18.119992	   0.000000; % COW
	2	 0.0	 0.0	 3	   0.000000	  28.421775	   0.000000; % COW
	2	 0.0	 0.0	 3	   0.000000	  15.660903	   0.000000; % NG
	2	 0.0	 0.0	 3	   0.000000	   5.667664	   0.000000; % COW
	2	 0.0	 0.0	 3	   0.000000	  19.797917	   0.000000; % NUC
	2	 0.0	 0.0	 3	   0.000000	 109.357263	   0.000000; % NG
	2	 0.0	 0.0	 3	   0.000000	 116.925701	   0.000000; % COW
	2	 0.0	 0.0	 3	   0.000000	  38.911893	   0.000000; % PEL
	2	 0.0	 0.0	 3	   0.000000	 103.504481	   0.000000; % NG
	2	 0.0	 0.0	 3	   0.000000	  29.879728	   0.000000; % PEL
	2	 0.0	 0.0	 3	   0.000000	  54.667442	   0.000000; % NG
	2	 0.0	 0.0	 3	   0.000000	  35.644799	   0.000000; % NG
	2	 0.0	 0.0	 3	   0.000000	 100.151990	   0.000000; % PEL
	2	 0.0	 0.0	 3	   0.000000	  53.625088	   0.000000; % PEL
	2	 0.0	 0.0	 3	   0.000000	  30.773174	   0.000000; % NG
	2	 0.0	 0.0	 3	   0.000000	 129.451325	   0.000000; % PEL
	2	 0.0	 0.0	 3	   0.000000	  45.436313	   0.000000; % PEL
	2	 0.0	 0.0	 3	   0.000000	  39.091670	   0.000000; % NG
	2	 0.0	 0.0	 3	   0.000000	  99.401859	   0.000000; % NG
	2	 0.0	 0.0	 3	   0.000000	  21.662259	   0.000000; % NG
	2	 0.0	 0.0	 3	   0.000000	  45.541664	   0.000000; % NG
	2	 0.0	 0.0	 3	   0.000000	  49.469415	   0.000000; % PEL
	2	 0.0	 0.0	 3	   0.000000	  32.311689	   0.000000; % COW
	2	 0.0	 0.0	 3	   0.000000	 119.347719	   0.000000; % NG
	2	 0.0	 0.0	 3	   0.000000	  23.547369	   0.000000; % COW
	2	 0.0	 0.0	 3	   0.000000	   2.859808	   0.000000; % NUC
	2	 0.0	 0.0	 3	   0.000000	   6.864972	   0.000000; % NUC
	2	 0.0	 0.0	 3	   0.000000	  99.497152	   0.000000; % PEL
	2	 0.0	 0.0	 3	   0.000000	  31.789207	   0.000000; % NG
	2	 0.0	 0.0	 3	   0.000000	  32.540539	   0.000000; % NG
	2	 0.0	 0.0	 3	   0.000000	   6.793600	   0.000000; % COW
	2	 0.0	 0.0	 3	   0.000000	  34.083995	   0.000000; % COW
	2	 0.0	 0.0	 3	   0.000000	  54.297341	   0.000000; % COW
	2	 0.0	 0.0	 3	   0.000000	  25.405366	   0.000000; % COW
	2	 0.0	 0.0	 3	   0.000000	  26.762535	   0.000000; % COW
	2	 0.0	 0.0	 3	   0.000000	  27.545621	   0.000000; % COW
	2	 0.0	 0.0	 3	   0.000000	  33.616738	   0.000000; % COW
	2	 0.0	 0.0	 3	   0.000000	  37.617069	   0.000000; % NG
	2	 0.0	 0.0	 3	   0.000000	 107.884528	   0.000000; % COW
	2	 0.0	 0.0	 3	   0.000000	  19.721211	   0.000000; % COW
	2	 0.0	 0.0	 3	   0.000000	  25.911063	   0.000000; % NG
	2	 0.0	 0.0	 3	   0.000000	  24.383565	   0.000000; % NG
	2	 0.0	 0.0	 3	   0.000000	  45.281971	   0.000000; % NG
	2	 0.0	 0.0	 3	   0.000000	  30.253167	   0.000000; % NG
	2	 0.0	 0.0	 3	   0.000000	  25.853896	   0.000000; % COW
	2	 0.0	 0.0	 3	   0.000000	  23.384789	   0.000000; % COW
	2	 0.0	 0.0	 3	   0.000000	   6.758840	   0.000000; % COW
	2	 0.0	 0.0	 3	   0.000000	  24.457229	   0.000000; % COW
	2	 0.0	 0.0	 3	   0.000000	  28.314700	   0.000000; % NG
	2	 0.0	 0.0	 3	   0.000000	  29.429072	   0.000000; % NG
	2	 0.0	 0.0	 3	   0.000000	  20.273721	   0.000000; % NG
	2	 0.0	 0.0	 3	   0.000000	  48.176458	   0.000000; % NG
	2	 0.0	 0.0	 3	   0.000000	  34.299742	   0.000000; % NG
	2	 0.0	 0.0	 3	   0.000000	  17.076737	   0.000000; % COW
	2	 0.0	 0.0	 3	   0.000000	  16.588831	   0.000000; % NG
	2	 0.0	 0.0	 3	   0.000000	  19.318277	   0.000000; % COW
	2	 0.0	 0.0	 3	   0.000000	  18.680412	   0.000000; % NUC
	2	 0.0	 0.0	 3	   0.000000	   6.633383	   0.000000; % COW
	2	 0.0	 0.0	 3	   0.000000	  41.475369	   0.000000; % NG
	2	 0.0	 0.0	 3	   0.000000	  32.079350	   0.000000; % COW
	2	 0.0	 0.0	 3	   0.000000	  37.665860	   0.000000; % NG
	2	 0.0	 0.0	 3	   0.000000	  22.878714	   0.000000; % NG
	2	 0.0	 0.0	 3	   0.000000	  28.952303	   0.000000; % NG
	2	 0.0	 0.0	 3	   0.000000	  40.359034	   0.000000; % NG
	2	 0.0	 0.0	 3	   0.000000	  34.353015	   0.000000; % NG
	2	 0.0	 0.0	 3	   0.000000	  27.111097	   0.000000; % NG
	2	 0.0	 0.0	 3	   0.000000	  41.652275	   0.000000; % NG
	2	 0.0	 0.0	 3	   0.000000	  27.441246	   0.000000; % COW
	2	 0.0	 0.0	 3	   0.000000	  37.797956	   0.000000; % COW
	2	 0.0	 0.0	 3	   0.000000	  13.786673	   0.000000; % COW
	2	 0.0	 0.0	 3	   0.000000	 112.501633	   0.000000; % NG
	2	 0.0	 0.0	 3	   0.000000	  45.184068	   0.000000; % NG
	2	 0.0	 0.0	 3	   0.000000	  35.242997	   0.000000; % COW
	2	 0.0	 0.0	 3	   0.000000	  29.732720	   0.000000; % NG
	2	 0.0	 0.0	 3	   0.000000	   7.072944	   0.000000; % COW
	2	 0.0	 0.0	 3	   0.000000	   7.190143	   0.000000; % COW
	2	 0.0	 0.0	 3	   0.000000	  29.024814	   0.000000; % PEL
	2	 0.0	 0.0	 3	   0.000000	 111.973759	   0.000000; % PEL
	2	 0.0	 0.0	 3	   0.000000	 121.864221	   0.000000; % NG
	2	 0.0	 0.0	 3	   0.000000	 123.841827	   0.000000; % NG
	2	 0.0	 0.0	 3	   0.000000	 106.668799	   0.000000; % NG
	2	 0.0	 0.0	 3	   0.000000	  97.191384	   0.000000; % PEL
	2	 0.0	 0.0	 3	   0.000000	 101.011895	   0.000000; % PEL
	2	 0.0	 0.0	 3	   0.000000	  43.474735	   0.000000; % NG
	2	 0.0	 0.0	 3	   0.000000	 114.499177	   0.000000; % NG
	2	 0.0	 0.0	 3	   0.000000	  34.889776	   0.000000; % NG
	2	 0.0	 0.0	 3	   0.000000	 111.696301	   0.000000; % PEL
	2	 0.0	 0.0	 3	   0.000000	  27.980534	   0.000000; % NUC
	2	 0.0	 0.0	 3	   0.000000	  30.408853	   0.000000; % NG
	2	 0.0	 0.0	 3	   0.000000	  22.166895	   0.000000; % NG
	2	 0.0	 0.0	 3	   0.000000	  32.130730	   0.000000; % COW
	2	 0.0	 0.0	 3	   0.000000	  22.139349	   0.000000; % COW
	2	 0.0	 0.0	 3	   0.000000	  35.693046	   0.000000; % NUC
	2	 0.0	 0.0	 3	   0.000000	   6.813815	   0.000000; % COW
	2	 0.0	 0.0	 3	   0.000000	  25.239496	   0.000000; % NUC
	2	 0.0	 0.0	 3	   0.000000	  24.058610	   0.000000; % COW
	2	 0.0	 0.0	 3	   0.000000	  52.977338	   0.000000; % NG
	2	 0.0	 0.0	 3	   0.000000	  22.002061	   0.000000; % COW
	2	 0.0	 0.0	 3	   0.000000	  32.412444	   0.000000; % NG
	2	 0.0	 0.0	 3	   0.000000	  38.385621	   0.000000; % COW
	2	 0.0	 0.0	 3	   0.000000	  23.937604	   0.000000; % NG
	2	 0.0	 0.0	 3	   0.000000	  40.588644	   0.000000; % NG
	2	 0.0	 0.0	 3	   0.000000	 121.788286	   0.000000; % COW
	2	 0.0	 0.0	 3	   0.000000	  22.180489	   0.000000; % COW
	2	 0.0	 0.0	 3	   0.000000	  15.118668	   0.000000; % PEL
	2	 0.0	 0.0	 3	   0.000000	  19.235965	   0.000000; % NG
	2	 0.0	 0.0	 3	   0.000000	  41.308627	   0.000000; % NG
	2	 0.0	 0.0	 3	   0.000000	  43.331328	   0.000000; % COW
	2	 0.0	 0.0	 3	   0.000000	  32.923634	   0.000000; % NG
	2	 0.0	 0.0	 3	   0.000000	  37.787385	   0.000000; % PEL
	2	 0.0	 0.0	 3	   0.000000	 115.799925	   0.000000; % PEL
	2	 0.0	 0.0	 3	   0.000000	 125.358723	   0.000000; % PEL
	2	 0.0	 0.0	 3	   0.000000	 106.839232	   0.000000; % PEL
	2	 0.0	 0.0	 3	   0.000000	  37.470049	   0.000000; % COW
	2	 0.0	 0.0	 3	   0.000000	 113.967568	   0.000000; % PEL
	2	 0.0	 0.0	 3	   0.000000	 115.113942	   0.000000; % COW
	2	 0.0	 0.0	 3	   0.000000	  25.222493	   0.000000; % PEL
	2	 0.0	 0.0	 3	   0.000000	  13.647219	   0.000000; % PEL
	2	 0.0	 0.0	 3	   0.000000	 103.342463	   0.000000; % NG
	2	 0.0	 0.0	 3	   0.000000	  38.215685	   0.000000; % NG
	2	 0.0	 0.0	 3	   0.000000	  48.344191	   0.000000; % COW
	2	 0.0	 0.0	 3	   0.000000	  27.309325	   0.000000; % NG
...
];

%% branch data
%	fbus	tbus	r	x	b	rateA	rateB	rateC	ratio	angle	status	angmin	angmax
mpc.branch = [
	1833	 1	 0.002607	 0.017462	 0.0324	 540.0	 540.0	 540.0	 0.0	 0.0	 1	 -30.0	 30.0;
	29	 2	 2.1e-05	 0.000125	 0.1386	 737.0	 737.0	 737.0	 0.0	 0.0	 1	 -30.0	 30.0;
	675	 2	 0.000145	 0.001877	 0.0635	 2487.0	 2487.0	 2487.0	 0.0	 0.0	 1	 -30.0	 30.0;
	1271	 2	 0.000319	 0.003234	 0.0838	 1841.0	 1841.0	 1841.0	 0.0	 0.0	 1	 -30.0	 30.0;
	30	 2	 2.1e-05	 0.000125	 0.1386	 737.0	 737.0	 737.0	 0.0	 0.0	 1	 -30.0	 30.0;
	142	 3	 0.006163	 0.041067	 0.0759	 446.0	 446.0	 446.0	 0.0	 0.0	 1	 -30.0	 30.0;
	677	 3	 0.000652	 0.004369	 0.0081	 558.0	 558.0	 558.0	 0.0	 0.0	 1	 -30.0	 30.0;
	1048	 4	 0.009733	 0.034089	 0.0185	 905.0	 905.0	 905.0	 0.0	 0.0	 1	 -30.0	 30.0;
	101	 5	 0.000277	 0.002015	 0.003	 288.0	 288.0	 288.0	 0.0	 0.0	 1	 -30.0	 30.0;
	286	 6	 0.00881	 0.033995	 0.0607	 289.0	 289.0	 289.0	 0.0	 0.0	 1	 -30.0	 30.0;
	329	 6	 0.004642	 0.019832	 0.0354	 255.0	 255.0	 255.0	 0.0	 0.0	 1	 -30.0	 30.0;
	737	 5	 0.008861	 0.03506	 0.0623	 288.0	 288.0	 288.0	 0.0	 0.0	 1	 -30.0	 30.0;
	760	 5	 0.006993	 0.032869	 0.0557	 255.0	 255.0	 255.0	 0.0	 0.0	 1	 -30.0	 30.0;
	1330	 6	 0.002173	 0.008731	 0.0152	 3441.0	 3441.0	 3441.0	 0.0	 0.0	 1	 -30.0	 30.0;
	1350	 5	 0.00077	 0.003121	 0.0051	 9629.0	 9629.0	 9629.0	 0.0	 0.0	 1	 -30.0	 30.0;
	1523	 6	 0.004109	 0.016138	 0.0284	 288.0	 288.0	 288.0	 0.0	 0.0	 1	 -30.0	 30.0;
	102	 8	 8.3e-05	 0.000907	 0.0202	 1034.0	 1034.0	 1034.0	 0.0	 0.0	 1	 -30.0	 30.0;
	316	 8	 0.000552	 0.006726	 0.0939	 1786.0	 1786.0	 1786.0	 0.0	 0.0	 1	 -30.0	 30.0;
	623	 8	 0.000512	 0.008012	 0.2455	 2462.0	 2462.0	 2462.0	 0.0	 0.0	 1	 -30.0	 30.0;
	882	 8	 0.001107	 0.00918	 0.1906	 1644.0	 1644.0	 1644.0	 0.0	 0.0	 1	 -30.0	 30.0;
	103	 7	 6.2e-05	 0.000741	 0.0173	 1095.0	 1095.0	 1095.0	 0.0	 0.0	 1	 -30.0	 30.0;
	623	 8	 0.000512	 0.008019	 0.2455	 2462.0	 2462.0	 2462.0	 0.0	 0.0	 1	 -30.0	 30.0;
	623	 7	 0.001153	 0.013123	 0.1841	 1433.0	 1433.0	 1433.0	 0.0	 0.0	 1	 -30.0	 30.0;
	113	 9	 0.000158	 0.000672	 0.0719	 331.0	 331.0	 331.0	 0.0	 0.0	 1	 -30.0	 30.0;
	1134	 9	 4.5e-05	 8.9e-05	 0.002	 268.0	 268.0	 268.0	 0.0	 0.0	 1	 -30.0	 30.0;
	346	 10	 0.00478	 0.028622	 0.0547	 455.0	 455.0	 455.0	 0.0	 0.0	 1	 -30.0	 30.0;
	345	 10	 0.00478	 0.028583	 0.0547	 455.0	 455.0	 455.0	 0.0	 0.0	 1	 -30.0	 30.0;
	106	 11	 0.000257	 0.000514	 0.0294	 53862.0	 53862.0	 53862.0	 0.0	 0.0	 1	 -30.0	 30.0;
	758	 12	 0.000257	 0.002153	 0.2147	 452.0	 452.0	 452.0	 0.0	 0.0	 1	 -30.0	 30.0;
	962	 12	 0.000277	 0.000869	 0.0931	 481.0	 481.0	 481.0	 0.0	 0.0	 1	 -30.0	 30.0;
	955	 13	 0.000237	 0.00083	 0.1863	 268.0	 268.0	 268.0	 0.0	 0.0	 1	 -30.0	 30.0;
	995	 13	 0.000178	 0.000612	 0.1377	 268.0	 268.0	 268.0	 0.0	 0.0	 1	 -30.0	 30.0;
	39	 14	 0.002568	 0.011753	 0.0203	 424.0	 424.0	 424.0	 0.0	 0.0	 1	 -30.0	 30.0;
	1428	 14	 0.002568	 0.011615	 0.0228	 290.0	 290.0	 290.0	 0.0	 0.0	 1	 -30.0	 30.0;
	1054	 16	 9.9e-05	 0.00077	 0.078	 379.0	 379.0	 379.0	 0.0	 0.0	 1	 -30.0	 30.0;
	1054	 15	 9.9e-05	 0.00077	 0.077	 379.0	 379.0	 379.0	 0.0	 0.0	 1	 -30.0	 30.0;
	1428	 17	 0.000514	 0.003437	 0.0061	 290.0	 290.0	 290.0	 0.0	 0.0	 1	 -30.0	 30.0;
	1432	 17	 0.005476	 0.036879	 0.1255	 522.0	 522.0	 522.0	 0.0	 0.0	 1	 -30.0	 30.0;
	39	 17	 0.000514	 0.003457	 0.0061	 418.0	 418.0	 418.0	 0.0	 0.0	 1	 -30.0	 30.0;
	869	 18	 0.003477	 0.01118	 0.0187	 304.0	 304.0	 304.0	 0.0	 0.0	 1	 -30.0	 30.0;
	1089	 18	 0.000612	 0.003121	 0.0152	 270.0	 270.0	 270.0	 0.0	 0.0	 1	 -30.0	 30.0;
	1164	 20	 2.4e-05	 0.000144	 0.0213	 701.0	 701.0	 701.0	 0.0	 0.0	 1	 -30.0	 30.0;
	1164	 19	 7.1e-05	 0.000162	 0.0162	 251.0	 251.0	 251.0	 0.0	 0.0	 1	 -30.0	 30.0;
	972	 21	 0.000257	 0.001165	 0.002	 405.0	 405.0	 405.0	 0.0	 0.0	 1	 -30.0	 30.0;
	476	 22	 0.005709	 0.037926	 0.0688	 492.0	 492.0	 492.0	 0.0	 0.0	 1	 -30.0	 30.0;
	1497	 22	 0.001758	 0.011654	 0.0208	 492.0	 492.0	 492.0	 0.0	 0.0	 1	 -30.0	 30.0;
	69	 23	 0.001383	 0.009462	 0.0172	 463.0	 463.0	 463.0	 0.0	 0.0	 1	 -30.0	 30.0;
	446	 23	 0.00156	 0.006933	 0.0121	 432.0	 432.0	 432.0	 0.0	 0.0	 1	 -30.0	 30.0;
	605	 23	 0.006376	 0.028733	 0.0506	 432.0	 432.0	 432.0	 0.0	 0.0	 1	 -30.0	 30.0;
	987	 23	 0.00158	 0.010627	 0.0192	 481.0	 481.0	 481.0	 0.0	 0.0	 1	 -30.0	 30.0;
	845	 25	 0.001086	 0.003536	 0.3766	 506.0	 506.0	 506.0	 0.0	 0.0	 1	 -30.0	 30.0;
	845	 25	 0.001086	 0.003536	 0.3766	 506.0	 506.0	 506.0	 0.0	 0.0	 1	 -30.0	 30.0;
	123	 27	 0.004741	 0.020385	 0.0334	 1479.0	 1479.0	 1479.0	 0.0	 0.0	 1	 -30.0	 30.0;
	1479	 27	 0.009027	 0.048869	 0.084	 351.0	 351.0	 351.0	 0.0	 0.0	 1	 -30.0	 30.0;
	1500	 27	 0.003516	 0.016257	 0.0273	 311.0	 311.0	 311.0	 0.0	 0.0	 1	 -30.0	 30.0;
	289	 28	 0.000514	 0.003417	 0.0278	 452.0	 452.0	 452.0	 0.0	 0.0	 1	 -30.0	 30.0;
	307	 28	 0.001084	 0.007198	 0.0132	 448.0	 448.0	 448.0	 0.0	 0.0	 1	 -30.0	 30.0;
	1451	 28	 0.000523	 0.002436	 0.0167	 348.0	 348.0	 348.0	 0.0	 0.0	 1	 -30.0	 30.0;
	289	 28	 0.000514	 0.003457	 0.0203	 356.0	 356.0	 356.0	 0.0	 0.0	 1	 -30.0	 30.0;
	307	 28	 0.001086	 0.007249	 0.0132	 540.0	 540.0	 540.0	 0.0	 0.0	 1	 -30.0	 30.0;
	1450	 28	 0.000553	 0.002469	 0.0157	 405.0	 405.0	 405.0	 0.0	 0.0	 1	 -30.0	 30.0;
	307	 28	 0.001086	 0.007269	 0.0132	 540.0	 540.0	 540.0	 0.0	 0.0	 1	 -30.0	 30.0;
	842	 31	 0.001837	 0.011694	 0.0759	 467.0	 467.0	 467.0	 0.0	 0.0	 1	 -30.0	 30.0;
	960	 31	 0.001067	 0.007131	 0.0132	 413.0	 413.0	 413.0	 0.0	 0.0	 1	 -30.0	 30.0;
	1269	 31	 0.001284	 0.008593	 0.0152	 541.0	 541.0	 541.0	 0.0	 0.0	 1	 -30.0	 30.0;
	1270	 31	 0.001284	 0.008593	 0.0162	 541.0	 541.0	 541.0	 0.0	 0.0	 1	 -30.0	 30.0;
	1270	 31	 0.001284	 0.008533	 0.0162	 541.0	 541.0	 541.0	 0.0	 0.0	 1	 -30.0	 30.0;
	212	 33	 0.000494	 0.000928	 0.0699	 29203.0	 29203.0	 29203.0	 0.0	 0.0	 1	 -30.0	 30.0;
	326	 33	 0.000184	 0.00159	 0.1661	 422.0	 422.0	 422.0	 0.0	 0.0	 1	 -30.0	 30.0;
	1153	 33	 0.000198	 0.001711	 0.1711	 385.0	 385.0	 385.0	 0.0	 0.0	 1	 -30.0	 30.0;
	1170	 33	 0.000751	 0.003358	 0.1534	 385.0	 385.0	 385.0	 0.0	 0.0	 1	 -30.0	 30.0;
	343	 34	 0.000178	 0.001047	 0.1499	 452.0	 452.0	 452.0	 0.0	 0.0	 1	 -30.0	 30.0;
	955	 34	 0.000316	 0.002232	 0.2774	 452.0	 452.0	 452.0	 0.0	 0.0	 1	 -30.0	 30.0;
	1257	 35	 0.037227	 0.106836	 0.0328	 270.0	 270.0	 270.0	 0.0	 0.0	 1	 -30.0	 30.0;
	1439	 35	 0.006089	 0.020756	 0.0067	 1408.0	 1408.0	 1408.0	 0.0	 0.0	 1	 -30.0	 30.0;
	846	 36	 0.000729	 0.005118	 0.0933	 389.0	 389.0	 389.0	 0.0	 0.0	 1	 -30.0	 30.0;
	846	 36	 0.000755	 0.005235	 0.0909	 419.0	 419.0	 419.0	 0.0	 0.0	 1	 -30.0	 30.0;
	228	 37	 0.001787	 0.01946	 0.4214	 1579.0	 1579.0	 1579.0	 0.0	 0.0	 1	 -30.0	 30.0;
	477	 38	 0.001719	 0.00877	 0.0157	 321.0	 321.0	 321.0	 0.0	 0.0	 1	 -30.0	 30.0;
	1179	 38	 0.009165	 0.04318	 0.077	 321.0	 321.0	 321.0	 0.0	 0.0	 1	 -30.0	 30.0;
	134	 39	 0.004879	 0.032454	 0.0602	 487.0	 487.0	 487.0	 0.0	 0.0	 1	 -30.0	 30.0;
	195	 39	 0.006341	 0.042746	 0.0785	 418.0	 418.0	 418.0	 0.0	 0.0	 1	 -30.0	 30.0;
	208	 39	 0.006914	 0.031249	 0.0547	 327.0	 327.0	 327.0	 0.0	 0.0	 1	 -30.0	 30.0;
	296	 40	 0.000582	 0.007652	 0.2643	 2487.0	 2487.0	 2487.0	 0.0	 0.0	 1	 -30.0	 30.0;
	766	 40	 0.001648	 0.021634	 0.748	 1470.0	 1470.0	 1470.0	 0.0	 0.0	 1	 -30.0	 30.0;
	950	 40	 0.000838	 0.014301	 0.5198	 2227.0	 2227.0	 2227.0	 0.0	 0.0	 1	 -30.0	 30.0;
	1282	 40	 0.001163	 0.015312	 0.5285	 2077.0	 2077.0	 2077.0	 0.0	 0.0	 1	 -30.0	 30.0;
	296	 40	 0.000575	 0.007576	 0.2614	 2487.0	 2487.0	 2487.0	 0.0	 0.0	 1	 -30.0	 30.0;
	766	 40	 0.001646	 0.021633	 0.7479	 1470.0	 1470.0	 1470.0	 0.0	 0.0	 1	 -30.0	 30.0;
	950	 40	 0.000838	 0.014287	 0.5198	 2229.0	 2229.0	 2229.0	 0.0	 0.0	 1	 -30.0	 30.0;
	1281	 40	 0.00117	 0.015339	 0.5285	 2074.0	 2074.0	 2074.0	 0.0	 0.0	 1	 -30.0	 30.0;
	1282	 40	 0.001821	 0.017874	 0.4318	 1382.0	 1382.0	 1382.0	 0.0	 0.0	 1	 -30.0	 30.0;
	558	 41	 0.000672	 0.003477	 0.0365	 254.0	 254.0	 254.0	 0.0	 0.0	 1	 -30.0	 30.0;
	1420	 42	 0.000632	 0.004188	 0.0081	 471.0	 471.0	 471.0	 0.0	 0.0	 1	 -30.0	 30.0;
	1420	 43	 0.000612	 0.004148	 0.0071	 471.0	 471.0	 471.0	 0.0	 0.0	 1	 -30.0	 30.0;
	1040	 44	 0.000672	 0.004405	 0.0081	 541.0	 541.0	 541.0	 0.0	 0.0	 1	 -30.0	 30.0;
	1521	 44	 0.000968	 0.004602	 0.0081	 304.0	 304.0	 304.0	 0.0	 0.0	 1	 -30.0	 30.0;
	1040	 44	 0.000632	 0.004444	 0.0081	 440.0	 440.0	 440.0	 0.0	 0.0	 1	 -30.0	 30.0;
	1524	 45	 0.001975	 0.013215	 0.0243	 541.0	 541.0	 541.0	 0.0	 0.0	 1	 -30.0	 30.0;
	1525	 45	 0.001956	 0.013037	 0.0243	 2348.0	 2348.0	 2348.0	 0.0	 0.0	 1	 -30.0	 30.0;
	1321	 46	 0.002933	 0.010267	 0.0032	 3004.0	 3004.0	 3004.0	 0.0	 0.0	 1	 -30.0	 30.0;
	1429	 46	 0.0028	 0.007511	 0.0022	 4003.0	 4003.0	 4003.0	 0.0	 0.0	 1	 -30.0	 30.0;
	49	 48	 2e-05	 0.000198	 0.0121	 261.0	 261.0	 261.0	 0.0	 0.0	 1	 -30.0	 30.0;
	49	 47	 2e-05	 0.000198	 0.0142	 261.0	 261.0	 261.0	 0.0	 0.0	 1	 -30.0	 30.0;
	298	 49	 0.002037	 0.010904	 0.0187	 352.0	 352.0	 352.0	 0.0	 0.0	 1	 -30.0	 30.0;
	318	 49	 0.000415	 0.002015	 0.1266	 428.0	 428.0	 428.0	 0.0	 0.0	 1	 -30.0	 30.0;
	370	 49	 0.000395	 0.00156	 0.1893	 426.0	 426.0	 426.0	 0.0	 0.0	 1	 -30.0	 30.0;
	608	 49	 4e-05	 0.000178	 0.0152	 169660.0	 169660.0	 169660.0	 0.0	 0.0	 1	 -30.0	 30.0;
	836	 49	 0.001323	 0.012444	 0.0678	 935.0	 935.0	 935.0	 0.0	 0.0	 1	 -30.0	 30.0;
	1227	 49	 0.000454	 0.002133	 0.2511	 268.0	 268.0	 268.0	 0.0	 0.0	 1	 -30.0	 30.0;
	1381	 49	 0.000119	 0.000691	 0.1002	 387.0	 387.0	 387.0	 0.0	 0.0	 1	 -30.0	 30.0;
	1411	 49	 0.00083	 0.005175	 0.0203	 323.0	 323.0	 323.0	 0.0	 0.0	 1	 -30.0	 30.0;
	836	 49	 0.001314	 0.012115	 0.0673	 943.0	 943.0	 943.0	 0.0	 0.0	 1	 -30.0	 30.0;
	1379	 49	 5.9e-05	 0.000217	 0.0496	 323.0	 323.0	 323.0	 0.0	 0.0	 1	 -30.0	 30.0;
	1378	 49	 5.9e-05	 0.000217	 0.0466	 323.0	 323.0	 323.0	 0.0	 0.0	 1	 -30.0	 30.0;
	1169	 50	 0.000158	 0.000948	 0.002	 348.0	 348.0	 348.0	 0.0	 0.0	 1	 -30.0	 30.0;
	704	 51	 0.001521	 0.007076	 0.0118	 302.0	 302.0	 302.0	 0.0	 0.0	 1	 -30.0	 30.0;
	1265	 51	 0.002469	 0.011457	 0.0203	 315.0	 315.0	 315.0	 0.0	 0.0	 1	 -30.0	 30.0;
	404	 52	 0.001442	 0.009699	 0.0172	 566.0	 566.0	 566.0	 0.0	 0.0	 1	 -30.0	 30.0;
	427	 52	 0.001422	 0.009541	 0.0172	 566.0	 566.0	 566.0	 0.0	 0.0	 1	 -30.0	 30.0;
	459	 53	 0.004681	 0.028227	 0.0516	 440.0	 440.0	 440.0	 0.0	 0.0	 1	 -30.0	 30.0;
	765	 53	 0.001185	 0.008	 0.0152	 575.0	 575.0	 575.0	 0.0	 0.0	 1	 -30.0	 30.0;
	1529	 53	 0.005333	 0.02722	 0.0491	 440.0	 440.0	 440.0	 0.0	 0.0	 1	 -30.0	 30.0;
	766	 54	 0.000145	 0.001911	 0.0661	 2487.0	 2487.0	 2487.0	 0.0	 0.0	 1	 -30.0	 30.0;
	1416	 54	 0.000253	 0.003323	 0.1148	 2487.0	 2487.0	 2487.0	 0.0	 0.0	 1	 -30.0	 30.0;
	1101	 56	 0.000494	 0.002252	 0.004	 406.0	 406.0	 406.0	 0.0	 0.0	 1	 -30.0	 30.0;
	1101	 55	 0.000494	 0.002252	 0.004	 406.0	 406.0	 406.0	 0.0	 0.0	 1	 -30.0	 30.0;
	320	 1827	 0.009857	 0.04478	 0.077	 405.0	 405.0	 405.0	 0.0	 0.0	 1	 -30.0	 30.0;
	813	 1827	 0.017106	 0.078321	 0.1387	 362.0	 362.0	 362.0	 0.0	 0.0	 1	 -30.0	 30.0;
	1287	 1827	 0.010272	 0.048691	 0.0866	 354.0	 354.0	 354.0	 0.0	 0.0	 1	 -30.0	 30.0;
	461	 57	 0.012978	 0.059338	 0.1002	 409.0	 409.0	 409.0	 0.0	 0.0	 1	 -30.0	 30.0;
	827	 57	 0.01197	 0.056632	 0.0942	 262.0	 262.0	 262.0	 0.0	 0.0	 1	 -30.0	 30.0;
	1429	 58	 0.000578	 0.001156	 0.0004	 24825.0	 24825.0	 24825.0	 0.0	 0.0	 1	 -30.0	 30.0;
	1090	 60	 0.000316	 0.001679	 0.0192	 17970.0	 17970.0	 17970.0	 0.0	 0.0	 1	 -30.0	 30.0;
	1090	 59	 0.000316	 0.001679	 0.0192	 17970.0	 17970.0	 17970.0	 0.0	 0.0	 1	 -30.0	 30.0;
	713	 61	 0.000277	 0.000573	 0.0334	 48541.0	 48541.0	 48541.0	 0.0	 0.0	 1	 -30.0	 30.0;
	1032	 62	 0.001055	 0.004836	 0.0081	 432.0	 432.0	 432.0	 0.0	 0.0	 1	 -30.0	 30.0;
	998	 63	 0.002114	 0.008553	 0.0152	 346.0	 346.0	 346.0	 0.0	 0.0	 1	 -30.0	 30.0;
	342	 65	 0.000158	 0.000652	 0.084	 46138.0	 46138.0	 46138.0	 0.0	 0.0	 1	 -30.0	 30.0;
	894	 64	 0.000198	 0.000731	 0.0942	 385.0	 385.0	 385.0	 0.0	 0.0	 1	 -30.0	 30.0;
	1265	 66	 0.00324	 0.012616	 0.0225	 302.0	 302.0	 302.0	 0.0	 0.0	 1	 -30.0	 30.0;
	1397	 67	 0.007522	 0.029736	 0.0496	 303.0	 303.0	 303.0	 0.0	 0.0	 1	 -30.0	 30.0;
	1543	 67	 0.006809	 0.03043	 0.0521	 380.0	 380.0	 380.0	 0.0	 0.0	 1	 -30.0	 30.0;
	404	 69	 0.002153	 0.014736	 0.0273	 565.0	 565.0	 565.0	 0.0	 0.0	 1	 -30.0	 30.0;
	469	 68	 0.000581	 0.003838	 0.0071	 507.0	 507.0	 507.0	 0.0	 0.0	 1	 -30.0	 30.0;
	791	 68	 0.001857	 0.020306	 0.0557	 566.0	 566.0	 566.0	 0.0	 0.0	 1	 -30.0	 30.0;
	1348	 69	 0.002331	 0.015526	 0.0278	 549.0	 549.0	 549.0	 0.0	 0.0	 1	 -30.0	 30.0;
	1480	 68	 0.001345	 0.008968	 0.0162	 566.0	 566.0	 566.0	 0.0	 0.0	 1	 -30.0	 30.0;
	470	 68	 0.000573	 0.003911	 0.0071	 415.0	 415.0	 415.0	 0.0	 0.0	 1	 -30.0	 30.0;
	640	 68	 0.001896	 0.012701	 0.0233	 501.0	 501.0	 501.0	 0.0	 0.0	 1	 -30.0	 30.0;
	556	 70	 0.000602	 0.006717	 0.1357	 1725.0	 1725.0	 1725.0	 0.0	 0.0	 1	 -30.0	 30.0;
	792	 70	 0.00063	 0.007098	 0.1588	 1916.0	 1916.0	 1916.0	 0.0	 0.0	 1	 -30.0	 30.0;
	1421	 70	 0.000367	 0.004631	 0.1126	 2275.0	 2275.0	 2275.0	 0.0	 0.0	 1	 -30.0	 30.0;
	792	 70	 0.000472	 0.006201	 0.2137	 2487.0	 2487.0	 2487.0	 0.0	 0.0	 1	 -30.0	 30.0;
	1416	 70	 0.001504	 0.019298	 0.4577	 1648.0	 1648.0	 1648.0	 0.0	 0.0	 1	 -30.0	 30.0;
	203	 72	 0.000158	 0.001106	 0.1357	 461.0	 461.0	 461.0	 0.0	 0.0	 1	 -30.0	 30.0;
	375	 71	 0.000219	 0.00193	 0.1954	 407.0	 407.0	 407.0	 0.0	 0.0	 1	 -30.0	 30.0;
	403	 71	 0.000158	 0.000909	 0.1316	 428.0	 428.0	 428.0	 0.0	 0.0	 1	 -30.0	 30.0;
	982	 71	 0.000411	 0.00356	 0.3564	 416.0	 416.0	 416.0	 0.0	 0.0	 1	 -30.0	 30.0;
	1104	 72	 0.000158	 0.001264	 0.1286	 416.0	 416.0	 416.0	 0.0	 0.0	 1	 -30.0	 30.0;
	842	 73	 0.000198	 0.001383	 0.003	 420.0	 420.0	 420.0	 0.0	 0.0	 1	 -30.0	 30.0;
	842	 74	 0.000217	 0.001402	 0.003	 420.0	 420.0	 420.0	 0.0	 0.0	 1	 -30.0	 30.0;
	387	 75	 0.001304	 0.008691	 0.0152	 525.0	 525.0	 525.0	 0.0	 0.0	 1	 -30.0	 30.0;
	842	 75	 0.000691	 0.004662	 0.0091	 541.0	 541.0	 541.0	 0.0	 0.0	 1	 -30.0	 30.0;
	78	 76	 9.9e-05	 0.000415	 0.0456	 434.0	 434.0	 434.0	 0.0	 0.0	 1	 -30.0	 30.0;
	300	 77	 1e-06	 0.000104	 0.078	 1051.0	 1051.0	 1051.0	 0.0	 0.0	 1	 -30.0	 30.0;
	436	 77	 0.000353	 0.004584	 0.1184	 2357.0	 2357.0	 2357.0	 0.0	 0.0	 1	 -30.0	 30.0;
	705	 77	 0.000699	 0.009179	 0.3177	 2487.0	 2487.0	 2487.0	 0.0	 0.0	 1	 -30.0	 30.0;
	436	 77	 0.000353	 0.004584	 0.1184	 2357.0	 2357.0	 2357.0	 0.0	 0.0	 1	 -30.0	 30.0;
	705	 77	 0.000734	 0.009245	 0.3148	 2487.0	 2487.0	 2487.0	 0.0	 0.0	 1	 -30.0	 30.0;
	302	 77	 7e-06	 0.000104	 0.0029	 1382.0	 1382.0	 1382.0	 0.0	 0.0	 1	 -30.0	 30.0;
	301	 77	 7e-06	 0.000104	 0.0029	 1382.0	 1382.0	 1382.0	 0.0	 0.0	 1	 -30.0	 30.0;
	435	 78	 0.002556	 0.017333	 0.0805	 418.0	 418.0	 418.0	 0.0	 0.0	 1	 -30.0	 30.0;
	1040	 78	 0.008849	 0.062617	 0.1144	 471.0	 471.0	 471.0	 0.0	 0.0	 1	 -30.0	 30.0;
	1431	 79	 2.2e-05	 9.9e-05	 0.001	 405.0	 405.0	 405.0	 0.0	 0.0	 1	 -30.0	 30.0;
	1430	 80	 2e-05	 9.9e-05	 0.0	 306724.0	 306724.0	 306724.0	 0.0	 0.0	 1	 -30.0	 30.0;
	745	 81	 0.000573	 0.002588	 0.0051	 388.0	 388.0	 388.0	 0.0	 0.0	 1	 -30.0	 30.0;
	1432	 82	 2e-05	 0.000198	 0.001	 566.0	 566.0	 566.0	 0.0	 0.0	 1	 -30.0	 30.0;
	626	 83	 0.000138	 0.00077	 0.001	 272.0	 272.0	 272.0	 0.0	 0.0	 1	 -30.0	 30.0;
	181	 84	 0.001171	 0.007842	 0.0166	 296.0	 296.0	 296.0	 0.0	 0.0	 1	 -30.0	 30.0;
	854	 84	 0.002212	 0.014979	 0.0388	 401.0	 401.0	 401.0	 0.0	 0.0	 1	 -30.0	 30.0;
...